/*---------------------------------------------------------------------------*\
| =========                 |                                                 |
| \\      /  F ield         | OpenFOAM: The Open Source CFD Toolbox           |
|  \\    /   O peration     | Version:  v1906                                 |
|   \\  /    A nd           | Web:      www.OpenFOAM.com                      |
|    \\/     M anipulation  |                                                 |
\*---------------------------------------------------------------------------*/
Build  : v1906 OPENFOAM=1906
Arch   : "LSB;label=32;scalar=64"
Exec   : pimpleFoam -parallel
Date   : Jan 08 2021
Time   : 22:40:27
Host   : DESKTOP-BF1RMVV
PID    : 546
I/O    : uncollated
Case   : /mnt/c/OpenFoam/icofoam/MapleBlankBlade
nProcs : 4
Hosts  :
(
    (DESKTOP-BF1RMVV 4)
)
Pstream initialized with:
    floatTransfer      : 0
    nProcsSimpleSum    : 0
    commsType          : nonBlocking
    polling iterations : 0
trapFpe: Floating point exception trapping enabled (FOAM_SIGFPE).
fileModificationChecking : Monitoring run-time modified files using timeStampMaster (fileModificationSkew 10)
allowSystemOperations : Allowing user-supplied system call operations

// * * * * * * * * * * * * * * * * * * * * * * * * * * * * * * * * * * * * * //
Create time

--> FOAM Warning : 
    From function static Foam::IOstreamOption::compressionType Foam::IOstreamOption::compressionEnum(const Foam::word&)
    in file db/IOstreams/IOstreams/IOstreamOption.C at line 86
    Unknown compression specifier 'uncompressed', assuming no compression
Create mesh for time = 0


PIMPLE: Operating solver in PISO mode

Reading field p

Reading field U

Reading/calculating face flux field phi

Selecting incompressible transport model Newtonian
Selecting turbulence model type laminar
Selecting laminar stress model Stokes
No MRF models present

No finite volume options present
Courant Number mean: 5.678687012054804 max: 228.9423042348078
forces forces:
    rho: rhoInf
    Freestream density (rhoInf) set to 1
    Not including porosity effects

forceCoeffs forceCoeffs:
    rho: rhoInf
    Freestream density (rhoInf) set to 1
    Not including porosity effects

surfaceFieldValue surfaceFieldValue:
    operation     = areaAverage



Starting time loop

Courant Number mean: 0.02468994353067306 max: 0.9954013227600339
deltaT = 0.004347826086956522
Time = 0.00434783

PIMPLE: iteration 1
GAMG:  Solving for p, Initial residual = 1, Final residual = 9.049059922473506e-09, No Iterations 22
time step continuity errors : sum local = 3.460674666435579e-15, global = -1.298532006273839e-15, cumulative = -1.298532006273839e-15
ExecutionTime = 0.8100000000000001 s  ClockTime = 1 s

forces forces write:
    Sum of forces
        Total    : (319.8043328289525 -226.1481014010946 -10.41293655127689)
        Pressure : (269.360686009182 -225.1729829218841 -10.39292943721967)
        Viscous  : (50.44364681977044 -0.9751184792104516 -0.02000711405721875)
    Sum of moments
        Total    : (10.71247753750255 -19.32814351234255 -2118.567576435507)
        Pressure : (10.63457373149682 -24.51314629523627 -1999.21457383365)
        Viscous  : (0.07790380600573024 5.185002782893721 -119.3530026018571)


forceCoeffs forceCoeffs execute:
    Coefficients
        Cd       : 25.58434662631619	(pressure: 21.54885488073456	viscous: 4.035491745581634)
        Cs       : 0.8330349241021513	(pressure: 0.8314343549775738	viscous: 0.0016005691245775)
        Cl       : -18.09184811208756	(pressure: -18.01383863375073	viscous: -0.07800947833683612)
        CmRoll       : 0.856998203000204	(pressure: 0.8507658985197456	viscous: 0.006232304480458418)
        CmPitch       : 169.4854061148405	(pressure: 159.9371659066919	viscous: 9.548240208148565)
        CmYaw       : -1.546251480987404	(pressure: -1.961051703618901	viscous: 0.4148002226314976)
        Cd(f)    : 13.6491715161583
        Cd(r)    : 11.93517511015789
        Cs(f)    : -1.129734018936328
        Cs(r)    : 1.96276894303848
        Cl(f)    : 160.4394820587967
        Cl(r)    : -178.5313301708843
Courant Number mean: 0.02469099140271774 max: 1.014411609982504
deltaT = 0.004347826086956522
Time = 0.00869565

PIMPLE: iteration 1
GAMG:  Solving for p, Initial residual = 0.3181216743344388, Final residual = 6.16988326391194e-09, No Iterations 20
time step continuity errors : sum local = 1.820251839525866e-14, global = 6.946917715937589e-15, cumulative = 5.64838570966375e-15
ExecutionTime = 1.19 s  ClockTime = 2 s

forces forces write:
    Sum of forces
        Total    : (60.98288825987043 -10.90583630249395 4.637837358373006)
        Pressure : (11.34862353100734 -10.02517792627712 4.657932992368435)
        Viscous  : (49.63426472886309 -0.8806583762168283 -0.02009563399542885)
    Sum of moments
        Total    : (5.965485681944314 7.192285196296172 -201.3143701957586)
        Pressure : (5.908164320848896 2.05404566943053 -83.91694183209181)
        Viscous  : (0.05732136109541873 5.138239526865642 -117.3974283636667)


forceCoeffs forceCoeffs execute:
    Coefficients
        Cd       : 4.878631060789633	(pressure: 0.907889882480587	viscous: 3.970741178309046)
        Cs       : -0.3710269886698405	(pressure: -0.3726346393894748	viscous: 0.001607650719634308)
        Cl       : -0.8724669041995154	(pressure: -0.8020142341021692	viscous: -0.07045267009734625)
        CmRoll       : 0.4772388545555451	(pressure: 0.4726531456679116	viscous: 0.004585708887633498)
        CmPitch       : 16.10514961566068	(pressure: 6.713355346567344	viscous: 9.391794269093337)
        CmYaw       : 0.5753828157036937	(pressure: 0.1643236535544424	viscous: 0.4110591621492513)
        Cd(f)    : 2.916554384950362
        Cd(r)    : 1.962076675839272
        Cs(f)    : 0.3898693213687734
        Cs(r)    : -0.7608963100386139
        Cl(f)    : 15.66891616356092
        Cl(r)    : -16.54138306776044
Courant Number mean: 0.02469086391978229 max: 1.011420283099484
deltaT = 0.004347826086956522
Time = 0.0130435

PIMPLE: iteration 1
GAMG:  Solving for p, Initial residual = 0.1485399886503423, Final residual = 8.875647688993262e-09, No Iterations 15
time step continuity errors : sum local = 1.37129789936896e-14, global = -5.07171505199537e-15, cumulative = 5.766706576683794e-16
ExecutionTime = 1.51 s  ClockTime = 2 s

forces forces write:
    Sum of forces
        Total    : (60.90856991920796 -11.09714557037861 4.854023215480464)
        Pressure : (12.01444642295374 -10.25909261900538 4.851508610701535)
        Viscous  : (48.89412349625422 -0.8380529513732305 0.002514604778929333)
    Sum of moments
        Total    : (11.98869068397653 -9.582498351026022 -205.4850153369959)
        Pressure : (11.89107874394848 -14.55650393376606 -89.92040416109759)
        Viscous  : (0.09761194002805604 4.974005582740034 -115.5646111758983)


forceCoeffs forceCoeffs execute:
    Coefficients
        Cd       : 4.872685593536636	(pressure: 0.9611557138362987	viscous: 3.911529879700337)
        Cs       : -0.388321857238437	(pressure: -0.3881206888561227	viscous: -0.0002011683823143466)
        Cl       : -0.8877716456302885	(pressure: -0.8207274095204301	viscous: -0.06704423610985843)
        CmRoll       : 0.9590952547181225	(pressure: 0.9512862995158781	viscous: 0.007808955202244482)
        CmPitch       : 16.43880122695967	(pressure: 7.193632332887806	viscous: 9.245168894071863)
        CmYaw       : -0.7665998680820817	(pressure: -1.164520314701284	viscous: 0.3979204466192027)
        Cd(f)    : 3.39543805148644
        Cd(r)    : 1.477247542050195
        Cs(f)    : -0.9607607967013002
        Cs(r)    : 0.5724389394628632
        Cl(f)    : 15.99491540414452
        Cl(r)    : -16.88268704977481
Courant Number mean: 0.02469073504962587 max: 1.009304226155662
deltaT = 0.004347826086956522
Time = 0.0173913

PIMPLE: iteration 1
GAMG:  Solving for p, Initial residual = 0.09629360491332346, Final residual = 9.930216437327696e-09, No Iterations 14
time step continuity errors : sum local = 1.438359794279616e-14, global = -5.479151387549518e-15, cumulative = -4.902480729881139e-15
ExecutionTime = 1.82 s  ClockTime = 2 s

forces forces write:
    Sum of forces
        Total    : (60.39115407571103 -11.44269699112647 4.81210170132485)
        Pressure : (12.16689566175043 -10.64903732345349 4.788135795944878)
        Viscous  : (48.2242584139606 -0.7936596676729747 0.0239659053799714)
    Sum of moments
        Total    : (13.57116536132669 -16.71981383977341 -206.5615545502826)
        Pressure : (13.42588926326825 -21.55377285875765 -92.74752709004575)
        Viscous  : (0.1452760980584358 4.83395901898424 -113.8140274602369)


forceCoeffs forceCoeffs execute:
    Coefficients
        Cd       : 4.831292326056881	(pressure: 0.9733516529400343	viscous: 3.857940673116847)
        Cs       : -0.3849681361059879	(pressure: -0.3830508636755902	viscous: -0.001917272430397712)
        Cl       : -0.9154157592901172	(pressure: -0.8519229858762792	viscous: -0.06349277341383797)
        CmRoll       : 1.085693228906135	(pressure: 1.07407114106146	viscous: 0.01162208784467486)
        CmPitch       : 16.52492436402261	(pressure: 7.419802167203659	viscous: 9.105122196818948)
        CmYaw       : -1.337585107181873	(pressure: -1.724301828700612	viscous: 0.3867167215187391)
        Cd(f)    : 3.501339391934576
        Cd(r)    : 1.329952934122306
        Cs(f)    : -1.530069175234867
        Cs(r)    : 1.145101039128879
        Cl(f)    : 16.06721648437755
        Cl(r)    : -16.98263224366767
Courant Number mean: 0.02469060876022623 max: 1.007593930121787
deltaT = 0.004347826086956522
Time = 0.0217391

PIMPLE: iteration 1
GAMG:  Solving for p, Initial residual = 0.08225250062495866, Final residual = 9.108365392397932e-09, No Iterations 14
time step continuity errors : sum local = 1.294792443093051e-14, global = -4.931368737231343e-15, cumulative = -9.833849467112482e-15
ExecutionTime = 2.15 s  ClockTime = 3 s

forces forces write:
    Sum of forces
        Total    : (60.2345908188811 -11.87050956774074 3.581279021871131)
        Pressure : (12.61829936060519 -11.12824619999146 3.545704768126051)
        Viscous  : (47.61629145827592 -0.7422633677492797 0.03557425374508005)
    Sum of moments
        Total    : (10.52279357316147 -11.03279073721491 -207.6763587877036)
        Pressure : (10.35272504302968 -15.76792506456268 -95.52994311746957)
        Viscous  : (0.1700685301317854 4.735134327347772 -112.1464156702341)


forceCoeffs forceCoeffs execute:
    Coefficients
        Cd       : 4.818767265510488	(pressure: 1.009463948848415	viscous: 3.809303316662073)
        Cs       : -0.2865023217496905	(pressure: -0.2836563814500841	viscous: -0.002845940299606403)
        Cl       : -0.9496407654192588	(pressure: -0.8902596959993164	viscous: -0.05938106941994237)
        CmRoll       : 0.8418234858529171	(pressure: 0.8282180034423743	viscous: 0.01360548241054283)
        CmPitch       : 16.61410870301629	(pressure: 7.642395449397564	viscous: 8.971713253618724)
        CmYaw       : -0.8826232589771924	(pressure: -1.261434005165014	viscous: 0.3788107461878217)
        Cd(f)    : 3.251207118608161
        Cd(r)    : 1.567560146902327
        Cs(f)    : -1.025874419852038
        Cs(r)    : 0.7393720981023472
        Cl(f)    : 16.13928832030666
        Cl(r)    : -17.08892908572592
Courant Number mean: 0.02469048551929835 max: 1.00665170012564
deltaT = 0.004347826086956522
Time = 0.026087

PIMPLE: iteration 1
GAMG:  Solving for p, Initial residual = 0.07629815752012231, Final residual = 7.335387596292637e-09, No Iterations 14
time step continuity errors : sum local = 1.03362138073738e-14, global = -3.9351175447397e-15, cumulative = -1.376896701185218e-14
ExecutionTime = 2.45 s  ClockTime = 3 s

forces forces write:
    Sum of forces
        Total    : (60.01014085198917 -11.91700802069973 3.704504290281042)
        Pressure : (12.94270456182083 -11.2309768218673 3.658528708407056)
        Viscous  : (47.06743629016834 -0.6860311988324235 0.04597558187398566)
    Sum of moments
        Total    : (11.59809550063315 -14.63923501497509 -205.9346049851651)
        Pressure : (11.40313874635403 -19.26842183776844 -95.32517317273054)
        Viscous  : (0.1949567542791243 4.629186822793346 -110.6094318124346)


forceCoeffs forceCoeffs execute:
    Coefficients
        Cd       : 4.800811268159133	(pressure: 1.035416364945666	viscous: 3.765394903213466)
        Cs       : -0.2963603432224833	(pressure: -0.2926822966725645	viscous: -0.003678046549918853)
        Cl       : -0.9533606416559779	(pressure: -0.898478145749384	viscous: -0.05488249590659387)
        CmRoll       : 0.9278476400506519	(pressure: 0.912251099708322	viscous: 0.01559654034232994)
        CmPitch       : 16.4747683988132	(pressure: 7.626013853818442	viscous: 8.848754544994764)
        CmYaw       : -1.171138801198007	(pressure: -1.541473747021475	viscous: 0.3703349458234677)
        Cd(f)    : 3.328253274130218
        Cd(r)    : 1.472557994028914
        Cs(f)    : -1.319318972809248
        Cs(r)    : 1.022958629586765
        Cl(f)    : 15.99808807798522
        Cl(r)    : -16.95144871964119
Courant Number mean: 0.02469036563019715 max: 1.006039343389172
deltaT = 0.004347826086956522
Time = 0.0304348

PIMPLE: iteration 1
GAMG:  Solving for p, Initial residual = 0.07599922772413711, Final residual = 7.759675508993978e-09, No Iterations 14
time step continuity errors : sum local = 1.086232387349626e-14, global = -4.137768322273953e-15, cumulative = -1.790673533412614e-14
ExecutionTime = 2.75 s  ClockTime = 3 s

forces forces write:
    Sum of forces
        Total    : (60.17029879098548 -12.27847432804227 5.221242288141061)
        Pressure : (13.60131633354848 -11.65246227825068 5.155374711923259)
        Viscous  : (46.568982457437 -0.6260120497915863 0.0658675762178025)
    Sum of moments
        Total    : (16.85175535197013 -26.94455810717394 -208.1961455389412)
        Pressure : (16.60211190930172 -31.37749236787726 -99.02260648968476)
        Viscous  : (0.249643442668409 4.432934260703327 -109.1735390492564)


forceCoeffs forceCoeffs execute:
    Coefficients
        Cd       : 4.813623903278837	(pressure: 1.088105306683879	viscous: 3.725518596594959)
        Cs       : -0.4176993830512849	(pressure: -0.4124299769538607	viscous: -0.005269406097424199)
        Cl       : -0.9822779462433811	(pressure: -0.9321969822600542	viscous: -0.0500809639833269)
        CmRoll       : 1.34814042815761	(pressure: 1.328168952744138	viscous: 0.01997147541347271)
        CmPitch       : 16.65569164311529	(pressure: 7.92180851917478	viscous: 8.733883123940512)
        CmYaw       : -2.155564648573915	(pressure: -2.510199389430181	viscous: 0.3546347408562661)
        Cd(f)    : 3.754952379797029
        Cd(r)    : 1.058671523481808
        Cs(f)    : -2.364414340099557
        Cs(r)    : 1.946714957048272
        Cl(f)    : 16.1645526699936
        Cl(r)    : -17.14683061623698
Courant Number mean: 0.02469024843401514 max: 1.005111397810651
deltaT = 0.004347826086956523
Time = 0.0347826

PIMPLE: iteration 1
GAMG:  Solving for p, Initial residual = 0.07099807356551532, Final residual = 7.753397267378046e-09, No Iterations 14
time step continuity errors : sum local = 1.089258127247697e-14, global = -4.157369247126323e-15, cumulative = -2.206410458125246e-14
ExecutionTime = 3.05 s  ClockTime = 3 s

forces forces write:
    Sum of forces
        Total    : (59.88556935676346 -12.05332542116817 5.013160213924593)
        Pressure : (13.76943161153563 -11.48910625824589 4.93726480737532)
        Viscous  : (46.11613774522783 -0.5642191629222804 0.07589540654927279)
    Sum of moments
        Total    : (14.91032293306048 -22.27622276568973 -205.155028662463)
        Pressure : (14.62302019932569 -26.57493946856522 -97.30215080277658)
        Viscous  : (0.2873027337347924 4.298716702875491 -107.8528778596864)


forceCoeffs forceCoeffs execute:
    Coefficients
        Cd       : 4.790845548541077	(pressure: 1.10155452892285	viscous: 3.689291019618226)
        Cs       : -0.4010528171139674	(pressure: -0.3949811845900256	viscous: -0.006071632523941823)
        Cl       : -0.9642660336934532	(pressure: -0.9191285006596708	viscous: -0.04513753303378242)
        CmRoll       : 1.192825834644838	(pressure: 1.169841615946055	viscous: 0.02298421869878339)
        CmPitch       : 16.41240229299704	(pressure: 7.784172064222125	viscous: 8.628230228774912)
        CmYaw       : -1.782097821255178	(pressure: -2.125995157485217	viscous: 0.3438973362300392)
        Cd(f)    : 3.588248608915376
        Cd(r)    : 1.2025969396257
        Cs(f)    : -1.982624229812162
        Cs(r)    : 1.581571412698194
        Cl(f)    : 15.93026927615031
        Cl(r)    : -16.89453530984376
Courant Number mean: 0.02469013311809786 max: 1.003995425796983
deltaT = 0.004347826086956523
Time = 0.0391304

PIMPLE: iteration 1
GAMG:  Solving for p, Initial residual = 0.06805507861152113, Final residual = 5.283113288427707e-09, No Iterations 14
time step continuity errors : sum local = 7.421486291288988e-15, global = -2.993938460713317e-15, cumulative = -2.505804304196577e-14
ExecutionTime = 3.35 s  ClockTime = 4 s

forces forces write:
    Sum of forces
        Total    : (59.70578460199712 -11.68687275572073 5.368858354654582)
        Pressure : (14.00206231587061 -11.18148718980112 5.288358144700225)
        Viscous  : (45.70372228612651 -0.5053855659196074 0.08050020995435733)
    Sum of moments
        Total    : (16.11175868156929 -26.68913360859854 -202.8651244926409)
        Pressure : (15.80387515480824 -30.88710072412166 -96.20173145680629)
        Viscous  : (0.3078835267610512 4.197967115523121 -106.6633930358346)


forceCoeffs forceCoeffs execute:
    Coefficients
        Cd       : 4.776462768159769	(pressure: 1.120164985269649	viscous: 3.656297782890121)
        Cs       : -0.4295086683723665	(pressure: -0.4230686515760179	viscous: -0.006440016796348586)
        Cl       : -0.9349498204576581	(pressure: -0.8945189751840895	viscous: -0.04043084527356858)
        CmRoll       : 1.288940694525543	(pressure: 1.264310012384659	viscous: 0.02463068214088409)
        CmPitch       : 16.22920995941127	(pressure: 7.696138516544502	viscous: 8.533071442866765)
        CmYaw       : -2.135130688687883	(pressure: -2.470968057929733	viscous: 0.3358373692418496)
        Cd(f)    : 3.677172078605428
        Cd(r)    : 1.099290689554342
        Cs(f)    : -2.349885022874066
        Cs(r)    : 1.9203763545017
        Cl(f)    : 15.76173504918244
        Cl(r)    : -16.6966848696401
Courant Number mean: 0.02469002116748116 max: 1.002985572778725
deltaT = 0.004347826086956522
Time = 0.0434783

PIMPLE: iteration 1
GAMG:  Solving for p, Initial residual = 0.07071553794910482, Final residual = 7.924348520523582e-09, No Iterations 14
time step continuity errors : sum local = 1.12472677100517e-14, global = -4.281040292552928e-15, cumulative = -2.93390833345187e-14
ExecutionTime = 3.66 s  ClockTime = 4 s

forces forces write:
    Sum of forces
        Total    : (59.37058789063389 -11.2436659082289 5.636953569684186)
        Pressure : (14.04648561969452 -10.79222784355376 5.5605061640923)
        Viscous  : (45.32410227093937 -0.4514380646751402 0.07644740559188584)
    Sum of moments
        Total    : (18.71367388935316 -33.08767763176636 -200.0003588387084)
        Pressure : (18.39875706240743 -37.20220006967093 -94.44188892492181)
        Viscous  : (0.314916826945721 4.11452243790457 -105.5584699137866)


forceCoeffs forceCoeffs execute:
    Coefficients
        Cd       : 4.749647031250711	(pressure: 1.123718849575561	viscous: 3.625928181675149)
        Cs       : -0.4509562855747348	(pressure: -0.4448404931273839	viscous: -0.006115792447350867)
        Cl       : -0.899493272658312	(pressure: -0.8633782274843008	viscous: -0.03611504517401121)
        CmRoll       : 1.497093911148252	(pressure: 1.471900564992594	viscous: 0.02519334615565768)
        CmPitch       : 16.00002870709667	(pressure: 7.555351113993744	viscous: 8.444677593102927)
        CmYaw       : -2.647014210541308	(pressure: -2.976176005573674	viscous: 0.3291617950323655)
        Cd(f)    : 3.871917426773607
        Cd(r)    : 0.8777296044771032
        Cs(f)    : -2.872492353328676
        Cs(r)    : 2.421536067753941
        Cl(f)    : 15.55028207076752
        Cl(r)    : -16.44977534342583
Courant Number mean: 0.0246899105782365 max: 1.001336314640048
deltaT = 0.004347826086956522
Time = 0.0478261

PIMPLE: iteration 1
GAMG:  Solving for p, Initial residual = 0.0728241309665599, Final residual = 7.412320225902464e-09, No Iterations 14
time step continuity errors : sum local = 1.057764538809964e-14, global = -4.365087246090069e-15, cumulative = -3.370417058060877e-14
ExecutionTime = 3.98 s  ClockTime = 4 s

forces forces write:
    Sum of forces
        Total    : (58.98806672947312 -11.13413305877145 5.967654363885918)
        Pressure : (14.01077326982763 -10.73654536707529 5.89033551842564)
        Viscous  : (44.97729345964549 -0.3975876916961542 0.07731884546027847)
    Sum of moments
        Total    : (18.27585075097051 -32.83017344466266 -197.8642812574614)
        Pressure : (17.94029480133499 -36.86390389058325 -93.31011133630501)
        Viscous  : (0.3355559496355193 4.033730445920592 -104.5541699211564)


forceCoeffs forceCoeffs execute:
    Coefficients
        Cd       : 4.719045338357849	(pressure: 1.12086186158621	viscous: 3.598183476771638)
        Cs       : -0.4774123491108734	(pressure: -0.4712268414740511	viscous: -0.006185507636822276)
        Cl       : -0.8907306447017157	(pressure: -0.8589236293660234	viscous: -0.03180701533569233)
        CmRoll       : 1.462068060077641	(pressure: 1.435223584106799	viscous: 0.02684447597084154)
        CmPitch       : 15.82914250059691	(pressure: 7.4648089069044	viscous: 8.364333593692511)
        CmYaw       : -2.626413875573012	(pressure: -2.949112311246659	viscous: 0.3226984356736473)
        Cd(f)    : 3.821590729256565
        Cd(r)    : 0.8974546091012836
        Cs(f)    : -2.865120050128449
        Cs(r)    : 2.387707701017575
        Cl(f)    : 15.38377717824605
        Cl(r)    : -16.27450782294777
Courant Number mean: 0.02468980248393365 max: 0.9994453174437329
deltaT = 0.004347826086956522
Time = 0.0521739

PIMPLE: iteration 1
GAMG:  Solving for p, Initial residual = 0.07247356774800058, Final residual = 4.845008048520304e-09, No Iterations 15
time step continuity errors : sum local = 6.993451952282939e-15, global = -2.667911934474569e-15, cumulative = -3.637208251508334e-14
ExecutionTime = 4.31 s  ClockTime = 5 s

forces forces write:
    Sum of forces
        Total    : (58.55396577930982 -10.72121057236265 10.25840690162791)
        Pressure : (13.8968731359612 -10.37349672454701 10.18547189203224)
        Viscous  : (44.65709264334862 -0.3477138478156344 0.07293500959566422)
    Sum of moments
        Total    : (26.7223776301904 -50.71919821663986 -194.8954138585913)
        Pressure : (26.36042163103479 -54.63215381196974 -91.25833076788848)
        Viscous  : (0.3619559991556111 3.912955595329873 -103.6370830907028)


forceCoeffs forceCoeffs execute:
    Coefficients
        Cd       : 4.684317262344784	(pressure: 1.111749850876896	viscous: 3.572567411467889)
        Cs       : -0.8206725521302325	(pressure: -0.8148377513625793	viscous: -0.005834800767653137)
        Cl       : -0.8576968457890117	(pressure: -0.829879737963761	viscous: -0.02781710782525075)
        CmRoll       : 2.137790210415232	(pressure: 2.108833730482783	viscous: 0.02895647993244889)
        CmPitch       : 15.5916331086873	(pressure: 7.300666461431077	viscous: 8.290966647256225)
        CmYaw       : -4.057535857331189	(pressure: -4.370572304957578	viscous: 0.3130364476263898)
        Cd(f)    : 4.479948841587624
        Cd(r)    : 0.2043684207571603
        Cs(f)    : -4.467872133396305
        Cs(r)    : 3.647199581266073
        Cl(f)    : 15.1627846857928
        Cl(r)    : -16.02048153158181
Courant Number mean: 0.02468969383326307 max: 0.9974340332441637
deltaT = 0.004347826086956521
Time = 0.0565217

PIMPLE: iteration 1
GAMG:  Solving for p, Initial residual = 0.07278450063923944, Final residual = 9.102753665292692e-09, No Iterations 14
time step continuity errors : sum local = 1.317234785804555e-14, global = 5.014350895199754e-15, cumulative = -3.135773161988358e-14
ExecutionTime = 4.6 s  ClockTime = 5 s

forces forces write:
    Sum of forces
        Total    : (57.60180829691505 -10.09541216924812 10.17514094055587)
        Pressure : (13.24244125216911 -9.790180737305338 10.12111236986281)
        Viscous  : (44.35936704474594 -0.3052314319427836 0.0540285706930608)
    Sum of moments
        Total    : (27.99598200418074 -53.75998126956343 -187.2363277950323)
        Pressure : (27.66087975997369 -57.67949555052574 -84.40798804795006)
        Viscous  : (0.3351022442070459 3.919514280962313 -102.8283397470823)


forceCoeffs forceCoeffs execute:
    Coefficients
        Cd       : 4.608144663753204	(pressure: 1.059395300173529	viscous: 3.548749363579675)
        Cs       : -0.8140112752444694	(pressure: -0.8096889895890245	viscous: -0.004322285655444864)
        Cl       : -0.8076329735398495	(pressure: -0.7832144589844269	viscous: -0.02441851455542268)
        CmRoll       : 2.239678560334458	(pressure: 2.212870380797895	viscous: 0.02680817953656367)
        CmPitch       : 14.97890622360258	(pressure: 6.752639043836004	viscous: 8.226267179766579)
        CmYaw       : -4.300798501565073	(pressure: -4.614359644042058	viscous: 0.313561142476985)
        Cd(f)    : 4.54375089221106
        Cd(r)    : 0.06439377154214343
        Cs(f)    : -4.707804139187308
        Cs(r)    : 3.893792863942839
        Cl(f)    : 14.57508973683266
        Cl(r)    : -15.38272271037251
Courant Number mean: 0.02468958855915268 max: 0.9954998401691222
deltaT = 0.004347826086956522
Time = 0.0608696

PIMPLE: iteration 1
GAMG:  Solving for p, Initial residual = 0.06997264615219521, Final residual = 9.783374579525296e-09, No Iterations 14
time step continuity errors : sum local = 1.438798766219725e-14, global = 5.541633847573026e-15, cumulative = -2.581609777231056e-14
ExecutionTime = 4.89 s  ClockTime = 5 s

forces forces write:
    Sum of forces
        Total    : (57.32978348364561 -9.392787344559782 10.14643455151391)
        Pressure : (13.25250829680311 -9.125445247220771 10.11044694135571)
        Viscous  : (44.0772751868425 -0.2673420973390101 0.0359876101581993)
    Sum of moments
        Total    : (24.15688656286197 -44.11093639257565 -182.6001037191621)
        Pressure : (23.85168519388961 -48.05902211933741 -80.51029927326218)
        Viscous  : (0.3052013689723626 3.94808572676176 -102.0898044459)


forceCoeffs forceCoeffs execute:
    Coefficients
        Cd       : 4.586382678691647	(pressure: 1.060200663744248	viscous: 3.526182014947399)
        Cs       : -0.8117147641211122	(pressure: -0.8088357553084563	viscous: -0.002879008812655944)
        Cl       : -0.7514229875647823	(pressure: -0.7300356197776615	viscous: -0.0213873677871208)
        CmRoll       : 1.932550925028958	(pressure: 1.908134815511169	viscous: 0.024416109517789)
        CmPitch       : 14.60800829753297	(pressure: 6.440823941860973	viscous: 8.167184355671996)
        CmYaw       : -3.528874911406051	(pressure: -3.844721769546992	viscous: 0.3158468581409407)
        Cd(f)    : 4.225742264374781
        Cd(r)    : 0.360640414316866
        Cs(f)    : -3.934732293466607
        Cs(r)    : 3.123017529345495
        Cl(f)    : 14.23229680375058
        Cl(r)    : -14.98371979131536
Courant Number mean: 0.02468948447086571 max: 0.993349808309319
deltaT = 0.004347826086956521
Time = 0.0652174

PIMPLE: iteration 1
GAMG:  Solving for p, Initial residual = 0.06916647950717177, Final residual = 7.87050086394434e-09, No Iterations 14
time step continuity errors : sum local = 1.169434934694538e-14, global = -4.620663222891906e-15, cumulative = -3.043676099520246e-14
ExecutionTime = 5.19 s  ClockTime = 6 s

forces forces write:
    Sum of forces
        Total    : (56.52517215137008 -8.928299897847067 7.299370628725777)
        Pressure : (12.70718340363626 -8.691183811317838 7.265702498596332)
        Viscous  : (43.81798874773382 -0.2371160865292282 0.03366813012944496)
    Sum of moments
        Total    : (17.33070291122675 -30.86219817700847 -179.0182883441554)
        Pressure : (17.03083632459781 -34.81097810727289 -77.59574755226294)
        Viscous  : (0.2998665866289381 3.948779930264429 -101.4225407918924)


forceCoeffs forceCoeffs execute:
    Coefficients
        Cd       : 4.522013772109606	(pressure: 1.0165746722909	viscous: 3.505439099818705)
        Cs       : -0.5839496502980621	(pressure: -0.5812561998877065	viscous: -0.002693450410355596)
        Cl       : -0.7142639918277652	(pressure: -0.695294704905427	viscous: -0.01896928692233825)
        CmRoll       : 1.38645623289814	(pressure: 1.362466905967825	viscous: 0.02398932693031504)
        CmPitch       : 14.32146306753243	(pressure: 6.207659804181034	viscous: 8.113803263351393)
        CmYaw       : -2.468975854160677	(pressure: -2.784878248581831	viscous: 0.3159023944211543)
        Cd(f)    : 3.647463118952943
        Cd(r)    : 0.8745506531566629
        Cs(f)    : -2.760950679309708
        Cs(r)    : 2.177001029011646
        Cl(f)    : 13.96433107161855
        Cl(r)    : -14.67859506344631
Courant Number mean: 0.02468938302689516 max: 0.9910596987255418
deltaT = 0.004347826086956521
Time = 0.0695652

PIMPLE: iteration 1
GAMG:  Solving for p, Initial residual = 0.06509339956418407, Final residual = 6.267119328535276e-09, No Iterations 14
time step continuity errors : sum local = 9.350890155261898e-15, global = -3.56029258431401e-15, cumulative = -3.399705357951647e-14
ExecutionTime = 5.49 s  ClockTime = 6 s

forces forces write:
    Sum of forces
        Total    : (55.77620996229264 -8.239374763261763 6.718623304592379)
        Pressure : (12.20448888998786 -8.032534948394281 6.679000557192133)
        Viscous  : (43.57172107230478 -0.2068398148674832 0.03962274740024611)
    Sum of moments
        Total    : (16.78555958686565 -32.88205492126936 -172.8973991121242)
        Pressure : (16.46522975563833 -36.78009832740095 -72.08688021442664)
        Viscous  : (0.3203298312273192 3.898043406131592 -100.8105188976976)


forceCoeffs forceCoeffs execute:
    Coefficients
        Cd       : 4.462096796983411	(pressure: 0.9763591111990287	viscous: 3.485737685784382)
        Cs       : -0.5374898643673902	(pressure: -0.5343200445753705	viscous: -0.003169819792019688)
        Cl       : -0.659149981060941	(pressure: -0.6426027958715423	viscous: -0.01654718518939865)
        CmRoll       : 1.342844766949252	(pressure: 1.317218380451066	viscous: 0.02562638649818553)
        CmPitch       : 13.83179192896993	(pressure: 5.76695041715413	viscous: 8.064841511815803)
        CmYaw       : -2.630564393701548	(pressure: -2.942407866192076	viscous: 0.3118434724905273)
        Cd(f)    : 3.573893165440957
        Cd(r)    : 0.8882036315424533
        Cs(f)    : -2.899309325885243
        Cs(r)    : 2.361819461517853
        Cl(f)    : 13.50221693843946
        Cl(r)    : -14.16136691950041
Courant Number mean: 0.02468928426447087 max: 0.9889269115627763
deltaT = 0.00434782608695652
Time = 0.073913

PIMPLE: iteration 1
GAMG:  Solving for p, Initial residual = 0.06774013441098775, Final residual = 6.73703193461294e-09, No Iterations 14
time step continuity errors : sum local = 1.010398142834356e-14, global = -3.850116798248995e-15, cumulative = -3.784717037776547e-14
ExecutionTime = 5.81 s  ClockTime = 6 s

forces forces write:
    Sum of forces
        Total    : (55.08527038789777 -7.862057633539089 5.807522701703991)
        Pressure : (11.74995726173844 -7.678552038064012 5.757880676187955)
        Viscous  : (43.33531312615933 -0.1835055954750769 0.04964202551603573)
    Sum of moments
        Total    : (16.72101918281233 -31.93503741696179 -169.0135779053697)
        Pressure : (16.36801608820737 -35.75534258548574 -68.789561160227)
        Viscous  : (0.3530030946049657 3.820305168523945 -100.2240167451427)


forceCoeffs forceCoeffs execute:
    Coefficients
        Cd       : 4.406821631031821	(pressure: 0.9399965809390755	viscous: 3.466825050092746)
        Cs       : -0.4646018161363191	(pressure: -0.4606304540950363	viscous: -0.003971362041282857)
        Cl       : -0.628964610683127	(pressure: -0.6142841630451209	viscous: -0.01468044763800615)
        CmRoll       : 1.337681534624986	(pressure: 1.309441287056589	viscous: 0.02824024756839725)
        CmPitch       : 13.52108623242957	(pressure: 5.503164892818159	viscous: 8.017921339611412)
        CmYaw       : -2.554802993356942	(pressure: -2.860427406838858	viscous: 0.3056244134819155)
        Cd(f)    : 3.541092350140897
        Cd(r)    : 0.8657292808909243
        Cs(f)    : -2.787103901425102
        Cs(r)    : 2.322502085288783
        Cl(f)    : 13.20660392708801
        Cl(r)    : -13.83556853777113
Courant Number mean: 0.02468918669271459 max: 0.9871701958501325
deltaT = 0.00434782608695652
Time = 0.0782609

PIMPLE: iteration 1
GAMG:  Solving for p, Initial residual = 0.0698243357777098, Final residual = 6.871234561879861e-09, No Iterations 14
time step continuity errors : sum local = 1.0404178187546e-14, global = 3.960833847826794e-15, cumulative = -3.388633652993867e-14
ExecutionTime = 6.12 s  ClockTime = 7 s

forces forces write:
    Sum of forces
        Total    : (54.41605303831467 -7.615809436933736 6.338285841574406)
        Pressure : (11.31487813133244 -7.455801977627157 6.280477715506508)
        Viscous  : (43.10117490698224 -0.1600074593065789 0.05780812606789792)
    Sum of moments
        Total    : (17.4224789618421 -33.68078632430253 -167.0399104264561)
        Pressure : (17.03605508414958 -37.41953276537254 -67.41951745256938)
        Viscous  : (0.3864238776925238 3.738746441070004 -99.62039297388677)


forceCoeffs forceCoeffs execute:
    Coefficients
        Cd       : 4.353284243065174	(pressure: 0.905190250506595	viscous: 3.448093992558579)
        Cs       : -0.5070628673259523	(pressure: -0.5024382172405205	viscous: -0.004624650085431834)
        Cl       : -0.6092647549546988	(pressure: -0.5964641582101725	viscous: -0.01280059674452631)
        CmRoll       : 1.393798316947368	(pressure: 1.362884406731966	viscous: 0.0309139102154019)
        CmPitch       : 13.36319283411649	(pressure: 5.393561396205549	viscous: 7.96963143791094)
        CmYaw       : -2.694462905944202	(pressure: -2.993562621229803	viscous: 0.2990997152856003)
        Cd(f)    : 3.570440438479955
        Cd(r)    : 0.7828438045852191
        Cs(f)    : -2.947994339607178
        Cs(r)    : 2.440931472281227
        Cl(f)    : 13.05856045663914
        Cl(r)    : -13.66782521159384
Courant Number mean: 0.024689090330763 max: 0.9856006882525126
deltaT = 0.004347826086956519
Time = 0.0826087

PIMPLE: iteration 1
GAMG:  Solving for p, Initial residual = 0.07396630933559041, Final residual = 6.748191828503383e-09, No Iterations 14
time step continuity errors : sum local = 1.034133099031111e-14, global = 3.965070865738716e-15, cumulative = -2.992126566419996e-14
ExecutionTime = 6.41 s  ClockTime = 7 s

forces forces write:
    Sum of forces
        Total    : (54.06887196177703 -7.48140362638606 6.050941821211392)
        Pressure : (11.20184191793596 -7.335121745965245 5.98657460088701)
        Viscous  : (42.86703004384108 -0.1462818804208141 0.0643672203243822)
    Sum of moments
        Total    : (16.65566133270562 -30.53410320140845 -162.1362741867753)
        Pressure : (16.25917612404499 -34.24504939012349 -63.11240852177166)
        Viscous  : (0.3964852086606199 3.710946188715041 -99.02386566500361)


forceCoeffs forceCoeffs execute:
    Coefficients
        Cd       : 4.325509756942163	(pressure: 0.8961473534348765	viscous: 3.429362403507286)
        Cs       : -0.4840753456969113	(pressure: -0.4789259680709607	viscous: -0.005149377625950575)
        Cl       : -0.5985122901108846	(pressure: -0.5868097396772195	viscous: -0.01170255043366513)
        CmRoll       : 1.332452906616449	(pressure: 1.300734089923599	viscous: 0.03171881669284959)
        CmPitch       : 12.97090193494202	(pressure: 5.048992681741733	viscous: 7.921909253200288)
        CmYaw       : -2.442728256112675	(pressure: -2.739603951209879	viscous: 0.2968756950972032)
        Cd(f)    : 3.49520778508753
        Cd(r)    : 0.8303019718546325
        Cs(f)    : -2.684765928961131
        Cs(r)    : 2.20069058326422
        Cl(f)    : 12.67164578988658
        Cl(r)    : -13.27015807999746
Courant Number mean: 0.02468899123036537 max: 0.9843088546221259
deltaT = 0.004347826086956517
Time = 0.0869565

PIMPLE: iteration 1
GAMG:  Solving for p, Initial residual = 0.07459322819790677, Final residual = 8.412214350598191e-09, No Iterations 14
time step continuity errors : sum local = 1.301474825981411e-14, global = 4.942016045121175e-15, cumulative = -2.497924961907878e-14
ExecutionTime = 6.73 s  ClockTime = 7 s

forces forces write:
    Sum of forces
        Total    : (53.68898911503614 -7.213589812133463 4.339834134955916)
        Pressure : (11.05495687470882 -7.083447979139379 4.26947324580858)
        Viscous  : (42.63403224032731 -0.1301418329940846 0.07036088914733639)
    Sum of moments
        Total    : (12.34303147605777 -21.1977883521828 -161.2201214746726)
        Pressure : (11.93668048057351 -24.89615878333426 -62.79757361205698)
        Viscous  : (0.4063509954842628 3.698370431151459 -98.42254786261559)


forceCoeffs forceCoeffs execute:
    Coefficients
        Cd       : 4.29511912920289	(pressure: 0.8843965499767055	viscous: 3.410722579226185)
        Cs       : -0.3471867307964733	(pressure: -0.3415578596646864	viscous: -0.00562887113178691)
        Cl       : -0.577087184970677	(pressure: -0.5666758383311502	viscous: -0.01041134663952677)
        CmRoll       : 0.9874425180846216	(pressure: 0.9549344384458806	viscous: 0.03250807963874102)
        CmPitch       : 12.8976097179738	(pressure: 5.023805888964557	viscous: 7.873803829009246)
        CmYaw       : -1.695823068174624	(pressure: -1.991692702666741	viscous: 0.2958696344921167)
        Cd(f)    : 3.135002082686067
        Cd(r)    : 1.160117046516823
        Cs(f)    : -1.869416433572861
        Cs(r)    : 1.522229702776387
        Cl(f)    : 12.60906612548847
        Cl(r)    : -13.18615331045914
Courant Number mean: 0.02468889353077241 max: 0.9831330273323734
deltaT = 0.004347826086956515
Time = 0.0913043

PIMPLE: iteration 1
GAMG:  Solving for p, Initial residual = 0.06699838203651116, Final residual = 6.985818014447728e-09, No Iterations 14
time step continuity errors : sum local = 1.09479314530698e-14, global = -4.157129757983558e-15, cumulative = -2.913637937706234e-14
ExecutionTime = 7.04 s  ClockTime = 7 s

forces forces write:
    Sum of forces
        Total    : (53.00044173944008 -6.833463503654012 4.110110888195952)
        Pressure : (10.59093826240781 -6.719827496816657 4.038652826671861)
        Viscous  : (42.40950347703226 -0.1136360068373553 0.07145806152409138)
    Sum of moments
        Total    : (12.11580214946939 -22.94591323193376 -157.6979882557997)
        Pressure : (11.71387006892852 -26.63576916720658 -59.8754703865578)
        Viscous  : (0.4019320805408673 3.689855935272819 -97.82251786924185)


forceCoeffs forceCoeffs execute:
    Coefficients
        Cd       : 4.240035339155205	(pressure: 0.847275060992625	viscous: 3.39276027816258)
        Cs       : -0.3288088710556761	(pressure: -0.3230922261337488	viscous: -0.00571664492192731)
        Cl       : -0.546677080292321	(pressure: -0.5375861997453325	viscous: -0.009090880546988424)
        CmRoll       : 0.9692641719575511	(pressure: 0.9371096055142817	viscous: 0.03215456644326938)
        CmPitch       : 12.61583906046397	(pressure: 4.790037630924624	viscous: 7.825801429539347)
        CmYaw       : -1.8356730585547	(pressure: -2.130861533376526	viscous: 0.2951884748218255)
        Cd(f)    : 3.089281841535154
        Cd(r)    : 1.150753497620051
        Cs(f)    : -2.000077494082538
        Cs(r)    : 1.671268623026862
        Cl(f)    : 12.34250052031781
        Cl(r)    : -12.88917760061013
Courant Number mean: 0.02468879558780285 max: 0.982429894601886
deltaT = 0.004347826086956517
Time = 0.0956522

PIMPLE: iteration 1
GAMG:  Solving for p, Initial residual = 0.06548875384059563, Final residual = 6.017896973704149e-09, No Iterations 14
time step continuity errors : sum local = 9.424051736611256e-15, global = 3.591945819769191e-15, cumulative = -2.554443355729315e-14
ExecutionTime = 7.35 s  ClockTime = 8 s

forces forces write:
    Sum of forces
        Total    : (52.37013276796694 -6.437238240037654 3.785415719545334)
        Pressure : (10.17850446677875 -6.333792656020057 3.712425739041992)
        Viscous  : (42.19162830118819 -0.1034455840175968 0.07298998050334127)
    Sum of moments
        Total    : (11.83097999330501 -22.89681519671935 -154.0924233609833)
        Pressure : (11.42972852351073 -26.58312174162228 -56.81774010480811)
        Viscous  : (0.4012514697942729 3.686306544902928 -97.27468325617518)


forceCoeffs forceCoeffs execute:
    Coefficients
        Cd       : 4.189610621437355	(pressure: 0.8142803573423002	viscous: 3.375330264095055)
        Cs       : -0.3028332575636266	(pressure: -0.2969940591233593	viscous: -0.0058391984402673)
        Cl       : -0.5149790592030122	(pressure: -0.5067034124816044	viscous: -0.008275646721407742)
        CmRoll       : 0.9464783994644003	(pressure: 0.9143782818808585	viscous: 0.03210011758354182)
        CmPitch       : 12.32739386887866	(pressure: 4.545419208384648	viscous: 7.781974660494013)
        CmYaw       : -1.831745215737548	(pressure: -2.126649739329782	viscous: 0.2949045235922342)
        Cd(f)    : 3.041283710183078
        Cd(r)    : 1.148326911254277
        Cs(f)    : -1.983161844519361
        Cs(r)    : 1.680328586955734
        Cl(f)    : 12.06990433927716
        Cl(r)    : -12.58488339848017
Courant Number mean: 0.02468870012071269 max: 0.9819682765186165
deltaT = 0.004347826086956524
Time = 0.1

PIMPLE: iteration 1
GAMG:  Solving for p, Initial residual = 0.06721905188261865, Final residual = 8.959601336413537e-09, No Iterations 14
time step continuity errors : sum local = 1.416902247265884e-14, global = -5.379998719731102e-15, cumulative = -3.092443227702425e-14
ExecutionTime = 7.89 s  ClockTime = 9 s

forces forces write:
    Sum of forces
        Total    : (51.70690002715264 -6.40883889002048 3.695323996297657)
        Pressure : (9.722208194856215 -6.32256056193124 3.619932362026567)
        Viscous  : (41.98469183229643 -0.08627832808923985 0.0753916342710903)
    Sum of moments
        Total    : (11.75312241556264 -22.51898732251681 -152.9738832167791)
        Pressure : (11.34310559147291 -26.18002972068756 -56.23082482142185)
        Viscous  : (0.4100168240897373 3.661042398170752 -96.74305839535731)


forceCoeffs forceCoeffs execute:
    Coefficients
        Cd       : 4.136552002172211	(pressure: 0.7777766555884971	viscous: 3.358775346583714)
        Cs       : -0.2956259197038125	(pressure: -0.2895945889621253	viscous: -0.006031330741687223)
        Cl       : -0.5127071112016384	(pressure: -0.5058048449544992	viscous: -0.006902266247139187)
        CmRoll       : 0.9402497932450113	(pressure: 0.9074484473178324	viscous: 0.03280134592717898)
        CmPitch       : 12.23791065734233	(pressure: 4.498465985713747	viscous: 7.739444671628584)
        CmYaw       : -1.801518985801345	(pressure: -2.094402377655005	viscous: 0.2928833918536601)
        Cd(f)    : 3.008525794331117
        Cd(r)    : 1.128026207841094
        Cs(f)    : -1.949331945653251
        Cs(r)    : 1.653706025949438
        Cl(f)    : 11.98155710174151
        Cl(r)    : -12.49426421294315
    functionObjects::vorticity vorticity1 writing field: vorticity
surfaceFieldValue surfaceFieldValue write:
    total faces   = 1946
    total area    = 54.05631956862666

    areaAverage(peak) of p = -0.7921659744367123
    areaAverage(peak) of U = (0 0 0)
    areaAverage(peak) of vorticity = (0.2944947840253808 1.840601198343587 -0.5083786531496942)

Courant Number mean: 0.02468860541163562 max: 0.9817075908320031
deltaT = 0.004347826086956522
Time = 0.104348

PIMPLE: iteration 1
GAMG:  Solving for p, Initial residual = 0.07007089630038348, Final residual = 8.296147819416167e-09, No Iterations 14
time step continuity errors : sum local = 1.311564582318557e-14, global = 4.987915792786124e-15, cumulative = -2.593651648423813e-14
ExecutionTime = 8.51 s  ClockTime = 10 s

forces forces write:
    Sum of forces
        Total    : (51.52470451570299 -6.445194142787746 3.759601084701076)
        Pressure : (9.742893465240755 -6.371046751111784 3.675582972242496)
        Viscous  : (41.78181105046223 -0.07414739167596218 0.08401811245858051)
    Sum of moments
        Total    : (13.52271552759631 -27.40671960662612 -153.0962791763131)
        Pressure : (13.09312513155057 -31.0247249657256 -56.85205881539144)
        Viscous  : (0.4295903960457393 3.618005359099481 -96.24422036092172)


forceCoeffs forceCoeffs execute:
    Coefficients
        Cd       : 4.121976361256238	(pressure: 0.7794314772192603	viscous: 3.342544884036978)
        Cs       : -0.300768086776086	(pressure: -0.2940466377793996	viscous: -0.00672144899668644)
        Cl       : -0.5156155314230196	(pressure: -0.5096837400889427	viscous: -0.005931791334076974)
        CmRoll       : 1.081817242207704	(pressure: 1.047450010524045	viscous: 0.03436723168365913)
        CmPitch       : 12.24770233410505	(pressure: 4.548164705231314	viscous: 7.699537628873736)
        CmYaw       : -2.192537568530089	(pressure: -2.481977997258048	viscous: 0.2894404287279584)
        Cd(f)    : 3.142805422835823
        Cd(r)    : 0.9791709384204148
        Cs(f)    : -2.342921611918133
        Cs(r)    : 2.042153525142046
        Cl(f)    : 11.98989456839354
        Cl(r)    : -12.50551009981656
Courant Number mean: 0.02468851303481149 max: 0.9813849311975946
deltaT = 0.004347826086956522
Time = 0.108696

PIMPLE: iteration 1
GAMG:  Solving for p, Initial residual = 0.07048220106904265, Final residual = 7.772204010171407e-09, No Iterations 14
time step continuity errors : sum local = 1.245769638463974e-14, global = -4.733368869475023e-15, cumulative = -3.066988535371315e-14
ExecutionTime = 8.789999999999999 s  ClockTime = 10 s

forces forces write:
    Sum of forces
        Total    : (50.96128027354367 -6.250546145604578 2.063698725716236)
        Pressure : (9.379055671395355 -6.190970099356785 1.967058491375434)
        Viscous  : (41.58222460214832 -0.05957604624779277 0.09664023434080235)
    Sum of moments
        Total    : (10.99881310755661 -25.30260613758689 -151.0793107228652)
        Pressure : (10.55499951372581 -28.89426776795185 -55.36043495677153)
        Viscous  : (0.4438135938308022 3.591661630364961 -95.71887576609367)


forceCoeffs forceCoeffs execute:
    Coefficients
        Cd       : 4.076902421883493	(pressure: 0.7503244537116283	viscous: 3.326577968171865)
        Cs       : -0.1650958980572989	(pressure: -0.1573646793100347	viscous: -0.007731218747264187)
        Cl       : -0.5000436916483662	(pressure: -0.4952776079485428	viscous: -0.004766083699823421)
        CmRoll       : 0.8799050486045291	(pressure: 0.8443999610980649	viscous: 0.03550508750646417)
        CmPitch       : 12.08634485782921	(pressure: 4.428834796541722	viscous: 7.657510061287493)
        CmYaw       : -2.024208491006951	(pressure: -2.311541421436148	viscous: 0.2873329304291968)
        Cd(f)    : 2.918356259546276
        Cd(r)    : 1.158546162337217
        Cs(f)    : -2.1067564400356
        Cs(r)    : 1.941660541978302
        Cl(f)    : 11.83632301200503
        Cl(r)    : -12.3363667036534
Courant Number mean: 0.0246884196273517 max: 0.9810748939719783
deltaT = 0.004347826086956522
Time = 0.113043

PIMPLE: iteration 1
GAMG:  Solving for p, Initial residual = 0.0751594142402973, Final residual = 7.995798920085043e-09, No Iterations 14
time step continuity errors : sum local = 1.278283653057006e-14, global = 4.856559466351762e-15, cumulative = -2.581332588736139e-14
ExecutionTime = 9.1 s  ClockTime = 10 s

forces forces write:
    Sum of forces
        Total    : (50.51589721999786 -6.064994510206947 2.195435581891404)
        Pressure : (9.127270603578884 -6.021896384252595 2.095921195903356)
        Viscous  : (41.38862661641897 -0.04309812595435268 0.09951438598804775)
    Sum of moments
        Total    : (10.99042827941351 -23.38098044376657 -148.3809273955569)
        Pressure : (10.56383259037686 -26.9824665356081 -53.20435217351047)
        Viscous  : (0.4265956890366514 3.601486091841535 -95.17657522204647)


forceCoeffs forceCoeffs execute:
    Coefficients
        Cd       : 4.041271777599828	(pressure: 0.7301816482863106	viscous: 3.311090129313517)
        Cs       : -0.1756348465513123	(pressure: -0.1676736956722685	viscous: -0.007961150879043819)
        Cl       : -0.4851995608165557	(pressure: -0.4817517107402075	viscous: -0.003447850076348214)
        CmRoll       : 0.879234262353081	(pressure: 0.8451066072301489	viscous: 0.03412765512293211)
        CmPitch       : 11.87047419164455	(pressure: 4.256348173880837	viscous: 7.614126017763716)
        CmYaw       : -1.870478435501325	(pressure: -2.158597322848648	viscous: 0.2881188873473227)
        Cd(f)    : 2.899870151152995
        Cd(r)    : 1.141401626446833
        Cs(f)    : -1.958295858776981
        Cs(r)    : 1.782661012225669
        Cl(f)    : 11.62787441123628
        Cl(r)    : -12.11307397205283
Courant Number mean: 0.02468832779090861 max: 0.9805061909753269
deltaT = 0.004347826086956522
Time = 0.117391

PIMPLE: iteration 1
GAMG:  Solving for p, Initial residual = 0.07069603733664502, Final residual = 8.343447245810228e-09, No Iterations 14
time step continuity errors : sum local = 1.353057126260777e-14, global = -5.153115726145893e-15, cumulative = -3.096644161350728e-14
ExecutionTime = 9.390000000000001 s  ClockTime = 11 s

forces forces write:
    Sum of forces
        Total    : (50.24039274668518 -6.31001719137369 3.75525305634227)
        Pressure : (9.038542252744755 -6.287714283801392 3.66285296193221)
        Viscous  : (41.20185049394043 -0.02230290757229811 0.09240009441006002)
    Sum of moments
        Total    : (12.28055931776053 -25.06979668481919 -148.5056206124299)
        Pressure : (11.88996844771252 -28.68027995243305 -53.88718526120119)
        Viscous  : (0.390590870048014 3.610483267613867 -94.61843535122865)


forceCoeffs forceCoeffs execute:
    Coefficients
        Cd       : 4.019231419734814	(pressure: 0.7230833802195803	viscous: 3.296148039515234)
        Cs       : -0.3004202445073815	(pressure: -0.2930282369545767	viscous: -0.0073920075528048)
        Cl       : -0.5048013753098951	(pressure: -0.5030171427041112	viscous: -0.001784232605783848)
        CmRoll       : 0.9824447454208423	(pressure: 0.9511974758170011	viscous: 0.03124726960384111)
        CmPitch       : 11.88044964899439	(pressure: 4.310974820896094	viscous: 7.569474828098291)
        CmYaw       : -2.005583734785535	(pressure: -2.294422396194644	viscous: 0.2888386614091093)
        Cd(f)    : 2.992060455288249
        Cd(r)    : 1.027170964446565
        Cs(f)    : -2.155793857039225
        Cs(r)    : 1.855373612531844
        Cl(f)    : 11.62804896133944
        Cl(r)    : -12.13285033664933
Courant Number mean: 0.02468823346700448 max: 0.9798756697926562
deltaT = 0.004347826086956522
Time = 0.121739

PIMPLE: iteration 1
GAMG:  Solving for p, Initial residual = 0.07312252958713511, Final residual = 7.60177347448953e-09, No Iterations 14
time step continuity errors : sum local = 1.238204346255917e-14, global = -4.708873011045009e-15, cumulative = -3.567531462455229e-14
ExecutionTime = 9.699999999999999 s  ClockTime = 11 s

forces forces write:
    Sum of forces
        Total    : (50.01512104008219 -5.815543608493924 4.419886714325981)
        Pressure : (8.997106329988448 -5.812444273293718 4.338842913006498)
        Viscous  : (41.01801471009374 -0.003099335200206194 0.08104380131948355)
    Sum of moments
        Total    : (12.01061905617926 -22.23234200778975 -145.0589492581583)
        Pressure : (11.67071221903007 -25.85130703985693 -50.9874088460595)
        Viscous  : (0.3399068371491895 3.618965032067181 -94.07154041209881)


forceCoeffs forceCoeffs execute:
    Coefficients
        Cd       : 4.001209683206575	(pressure: 0.7197685063990757	viscous: 3.281441176807499)
        Cs       : -0.3535909371460785	(pressure: -0.3471074330405198	viscous: -0.006483504105558683)
        Cl       : -0.4652434886795139	(pressure: -0.4649955418634974	viscous: -0.0002479468160164955)
        CmRoll       : 0.9608495244943408	(pressure: 0.9336569775224056	viscous: 0.02719254697193515)
        CmPitch       : 11.60471594065266	(pressure: 4.078992707684759	viscous: 7.525723232967904)
        CmYaw       : -1.778587360623179	(pressure: -2.068104563188554	viscous: 0.2895172025653744)
        Cd(f)    : 2.961454366097628
        Cd(r)    : 1.039755317108947
        Cs(f)    : -1.955382829196219
        Cs(r)    : 1.60179189205014
        Cl(f)    : 11.37209419631291
        Cl(r)    : -11.83733768499242
Courant Number mean: 0.02468813669626038 max: 0.9793369384067147
deltaT = 0.004347826086956521
Time = 0.126087

PIMPLE: iteration 1
GAMG:  Solving for p, Initial residual = 0.07258376841711485, Final residual = 6.508293270062713e-09, No Iterations 14
time step continuity errors : sum local = 1.057401952314118e-14, global = 4.021850052625772e-15, cumulative = -3.165346457192652e-14
ExecutionTime = 9.99 s  ClockTime = 11 s

forces forces write:
    Sum of forces
        Total    : (49.85928545377435 -5.748105353481537 4.295094680756379)
        Pressure : (9.022896745013076 -5.760747407504748 4.237235022213025)
        Viscous  : (40.83638870876127 0.01264205402321168 0.05785965854335417)
    Sum of moments
        Total    : (12.85261979318638 -25.64007073618841 -143.6841561101726)
        Pressure : (12.59016104928321 -29.34815957237854 -50.16863088342239)
        Viscous  : (0.2624587439031679 3.708088836190127 -93.51552522675017)


forceCoeffs forceCoeffs execute:
    Coefficients
        Cd       : 3.988742836301947	(pressure: 0.721831739601046	viscous: 3.266911096700901)
        Cs       : -0.3436075744605103	(pressure: -0.338978801777042	viscous: -0.004628772683468333)
        Cl       : -0.4598484282785228	(pressure: -0.4608597926003798	viscous: 0.001011364321856934)
        CmRoll       : 1.02820958345491	(pressure: 1.007212883942657	viscous: 0.02099669951225343)
        CmPitch       : 11.4947324888138	(pressure: 4.013490470673791	viscous: 7.481242018140012)
        CmYaw       : -2.051205658895073	(pressure: -2.347852765790283	viscous: 0.2966471068952101)
        Cd(f)    : 3.022581001605884
        Cd(r)    : 0.9661618346960632
        Cs(f)    : -2.223009446125328
        Cs(r)    : 1.879401871664818
        Cl(f)    : 11.26480827467454
        Cl(r)    : -11.72465670295306
Courant Number mean: 0.02468804037914154 max: 0.9784018985072929
deltaT = 0.004347826086956521
Time = 0.130435

PIMPLE: iteration 1
GAMG:  Solving for p, Initial residual = 0.07626780555384494, Final residual = 4.375955208919908e-09, No Iterations 15
time step continuity errors : sum local = 7.146566626151803e-15, global = 2.714316552365747e-15, cumulative = -2.893914801956077e-14
ExecutionTime = 10.31 s  ClockTime = 12 s

forces forces write:
    Sum of forces
        Total    : (50.09353921188578 -6.264309267745545 7.440005583410263)
        Pressure : (9.438049192649538 -6.292620086319049 7.417310795096761)
        Viscous  : (40.65549001923625 0.0283108185735044 0.02269478831350173)
    Sum of moments
        Total    : (17.77920139743122 -33.54460114304008 -146.051689412429)
        Pressure : (17.61428653393612 -37.38822508207724 -53.0729824818204)
        Viscous  : (0.1649148634951006 3.843623939037166 -92.97870693060861)


forceCoeffs forceCoeffs execute:
    Coefficients
        Cd       : 4.007483136950862	(pressure: 0.7550439354119629	viscous: 3.252439201538899)
        Cs       : -0.5952004466728209	(pressure: -0.5933848636077408	viscous: -0.001815583065080138)
        Cl       : -0.5011447414196435	(pressure: -0.5034096069055238	viscous: 0.002264865485880352)
        CmRoll       : 1.422336111794497	(pressure: 1.40914292271489	viscous: 0.01319318907960805)
        CmPitch       : 11.68413515299432	(pressure: 4.245838598545631	viscous: 7.438296554448687)
        CmYaw       : -2.683568091443206	(pressure: -2.991058006566179	viscous: 0.3074899151229732)
        Cd(f)    : 3.426077680269929
        Cd(r)    : 0.5814054566809335
        Cs(f)    : -2.981168314779616
        Cs(r)    : 2.385967868106795
        Cl(f)    : 11.4335627822845
        Cl(r)    : -11.93470752370414
Courant Number mean: 0.02468794412437183 max: 0.9758575451767308
deltaT = 0.004347826086956521
Time = 0.134783

PIMPLE: iteration 1
GAMG:  Solving for p, Initial residual = 0.07326197389741128, Final residual = 9.675574234807893e-09, No Iterations 14
time step continuity errors : sum local = 1.613223733105974e-14, global = -6.12987301475793e-15, cumulative = -3.506902103431871e-14
ExecutionTime = 10.6 s  ClockTime = 12 s

forces forces write:
    Sum of forces
        Total    : (49.60266415534637 -6.104801051244242 4.966785080475421)
        Pressure : (9.124549192513966 -6.147581347595502 4.974567099519929)
        Viscous  : (40.4781149628324 0.04278029635126075 -0.007782019044508141)
    Sum of moments
        Total    : (13.60036159299973 -26.74388789832258 -145.4458595386783)
        Pressure : (13.51770106825449 -30.73866142363564 -52.9872025676265)
        Viscous  : (0.08266052474524771 3.994773525313059 -92.45865697105178)


forceCoeffs forceCoeffs execute:
    Coefficients
        Cd       : 3.968213132427709	(pressure: 0.7299639354011171	viscous: 3.238249197026592)
        Cs       : -0.3973428064380336	(pressure: -0.3979653679615943	viscous: 0.0006225615235606512)
        Cl       : -0.4883840840995393	(pressure: -0.4918065078076401	viscous: 0.00342242370810086)
        CmRoll       : 1.088028927439979	(pressure: 1.081416085460359	viscous: 0.006612841979619816)
        CmPitch       : 11.63566876309426	(pressure: 4.238976205410119	viscous: 7.396692557684141)
        CmYaw       : -2.139511031865807	(pressure: -2.459092913890851	viscous: 0.3195818820250447)
        Cd(f)    : 3.072135493653833
        Cd(r)    : 0.8960776387738758
        Cs(f)    : -2.338182435084823
        Cs(r)    : 1.94083962864679
        Cl(f)    : 11.39147672104449
        Cl(r)    : -11.87986080514403
Courant Number mean: 0.02468784675946351 max: 0.9732673772853297
deltaT = 0.004347826086956521
Time = 0.13913

PIMPLE: iteration 1
GAMG:  Solving for p, Initial residual = 0.07430831369657644, Final residual = 6.781591682980597e-09, No Iterations 14
time step continuity errors : sum local = 1.122762914866988e-14, global = 4.304656701422664e-15, cumulative = -3.076436433289604e-14
ExecutionTime = 10.92 s  ClockTime = 12 s

forces forces write:
    Sum of forces
        Total    : (49.37151899301792 -5.88632237863836 5.523007072769846)
        Pressure : (9.065643928912296 -5.947728608002257 5.533244038654538)
        Viscous  : (40.30587506410563 0.06140622936389777 -0.01023696588469209)
    Sum of moments
        Total    : (13.41309415844689 -25.39630605543315 -142.0224844099299)
        Pressure : (13.34044019803871 -29.37934244040193 -50.05233548775605)
        Viscous  : (0.07265396040817548 3.983036384968776 -91.97014892217383)


forceCoeffs forceCoeffs execute:
    Coefficients
        Cd       : 3.949721519441433	(pressure: 0.7252515143129836	viscous: 3.22447000512845)
        Cs       : -0.4418405658215876	(pressure: -0.442659523092363	viscous: 0.0008189572707753674)
        Cl       : -0.4709057902910687	(pressure: -0.4758182886401805	viscous: 0.004912498349111821)
        CmRoll       : 1.073047532675751	(pressure: 1.067235215843097	viscous: 0.005812316832654037)
        CmPitch       : 11.36179875279439	(pressure: 4.004186839020484	viscous: 7.357611913773906)
        CmYaw       : -2.031704484434652	(pressure: -2.350347395232154	viscous: 0.318642910797502)
        Cd(f)    : 3.047908292396468
        Cd(r)    : 0.9018132270449657
        Cs(f)    : -2.252624767345446
        Cs(r)    : 1.810784201523858
        Cl(f)    : 11.12634585764885
        Cl(r)    : -11.59725164793992
Courant Number mean: 0.02468775272523673 max: 0.9699886501761206
deltaT = 0.00434782608695652
Time = 0.143478

PIMPLE: iteration 1
GAMG:  Solving for p, Initial residual = 0.07668823570727372, Final residual = 9.907447009953111e-09, No Iterations 14
time step continuity errors : sum local = 1.650437998384244e-14, global = -6.273065000907537e-15, cumulative = -3.703742933380358e-14
ExecutionTime = 11.21 s  ClockTime = 12 s

forces forces write:
    Sum of forces
        Total    : (49.23807182271293 -6.077108398919562 5.095047342043606)
        Pressure : (9.102575123762438 -6.159039749383293 5.104125338255895)
        Viscous  : (40.13549669895048 0.08193135046373071 -0.009077996212288827)
    Sum of moments
        Total    : (14.36650871096467 -25.63543825861147 -143.6339743208462)
        Pressure : (14.29766214231734 -29.60625882256679 -52.14684766544697)
        Viscous  : (0.06884656864732797 3.970820563955314 -91.48712665539918)


forceCoeffs forceCoeffs execute:
    Coefficients
        Cd       : 3.939045745817033	(pressure: 0.7282060099009949	viscous: 3.210839735916038)
        Cs       : -0.4076037873634885	(pressure: -0.4083300270604716	viscous: 0.000726239696983106)
        Cl       : -0.4861686719135649	(pressure: -0.4927231799506634	viscous: 0.006554508037098456)
        CmRoll       : 1.149320696877173	(pressure: 1.143812971385387	viscous: 0.005507725491786237)
        CmPitch       : 11.49071794566769	(pressure: 4.171747813235757	viscous: 7.318970132431933)
        CmYaw       : -2.050835060688918	(pressure: -2.368500705805343	viscous: 0.3176656451164251)
        Cd(f)    : 3.11884356978569
        Cd(r)    : 0.8202021760313434
        Cs(f)    : -2.254636954370662
        Cs(r)    : 1.847033167007173
        Cl(f)    : 11.24763360971091
        Cl(r)    : -11.73380228162447
Courant Number mean: 0.02468765987824631 max: 0.9671019263985997
deltaT = 0.00434782608695652
Time = 0.147826

PIMPLE: iteration 1
GAMG:  Solving for p, Initial residual = 0.07396825912457816, Final residual = 7.349701592211716e-09, No Iterations 14
time step continuity errors : sum local = 1.216253457689193e-14, global = 4.632046934956333e-15, cumulative = -3.240538239884724e-14
ExecutionTime = 11.51 s  ClockTime = 13 s

forces forces write:
    Sum of forces
        Total    : (48.83586209439947 -5.928824285430927 4.554788894596183)
        Pressure : (8.865556039184122 -6.028898511905396 4.570744013439632)
        Viscous  : (39.97030605521535 0.1000742264744684 -0.01595511884344874)
    Sum of moments
        Total    : (11.39074536097424 -19.0771528951491 -141.3194645779551)
        Pressure : (11.33742601245717 -23.07664056637837 -50.28718206178269)
        Viscous  : (0.0533193485170709 3.999487671229272 -91.03228251617243)


forceCoeffs forceCoeffs execute:
    Coefficients
        Cd       : 3.906868967551957	(pressure: 0.7092444831347297	viscous: 3.197624484417228)
        Cs       : -0.3643831115676947	(pressure: -0.3656595210751705	viscous: 0.001276409507475899)
        Cl       : -0.4743059428344741	(pressure: -0.4823118809524316	viscous: 0.008005938117957467)
        CmRoll       : 0.9112596288779389	(pressure: 0.9069940809965732	viscous: 0.004265547881365671)
        CmPitch       : 11.30555716623641	(pressure: 4.022974564942615	viscous: 7.282582601293793)
        CmYaw       : -1.526172231611928	(pressure: -1.84613124531027	viscous: 0.3199590136983417)
        Cd(f)    : 2.864694112653917
        Cd(r)    : 1.04217485489804
        Cs(f)    : -1.708363787395775
        Cs(r)    : 1.343980675828081
        Cl(f)    : 11.06840419481917
        Cl(r)    : -11.54271013765364
Courant Number mean: 0.02468756711050775 max: 0.9642793723641769
deltaT = 0.00434782608695652
Time = 0.152174

PIMPLE: iteration 1
GAMG:  Solving for p, Initial residual = 0.07306051761911535, Final residual = 6.5045816920701e-09, No Iterations 14
time step continuity errors : sum local = 1.078851898717066e-14, global = 4.098812386565601e-15, cumulative = -2.830657001228164e-14
ExecutionTime = 11.82 s  ClockTime = 13 s

forces forces write:
    Sum of forces
        Total    : (48.60893598829632 -5.78293833882858 5.066386498607669)
        Pressure : (8.796798296568074 -5.893637606619508 5.083348374192238)
        Viscous  : (39.81213769172825 0.1106992677909275 -0.0169618755845693)
    Sum of moments
        Total    : (13.07220147998824 -23.76569457221718 -141.895312356185)
        Pressure : (13.03053956464536 -27.80793096677646 -51.27814337498761)
        Viscous  : (0.04166191534287912 4.042236394559281 -90.61716898119741)


forceCoeffs forceCoeffs execute:
    Coefficients
        Cd       : 3.888714879063706	(pressure: 0.7037438637254458	viscous: 3.18497101533826)
        Cs       : -0.4053109198886134	(pressure: -0.406667869935379	viscous: 0.001356950046765544)
        Cl       : -0.4626350671062863	(pressure: -0.4714910085295606	viscous: 0.008855941423274201)
        CmRoll       : 1.045776118399059	(pressure: 1.042443165171628	viscous: 0.003332953227430329)
        CmPitch       : 11.3516249884948	(pressure: 4.102251469999008	viscous: 7.249373518495791)
        CmYaw       : -1.901255565777374	(pressure: -2.224634477342117	viscous: 0.3233789115647425)
        Cd(f)    : 2.990133557930911
        Cd(r)    : 0.898581321132794
        Cs(f)    : -2.103911025721681
        Cs(r)    : 1.698600105833068
        Cl(f)    : 11.12030745494165
        Cl(r)    : -11.58294252204794
Courant Number mean: 0.0246874751528172 max: 0.9619220686160093
deltaT = 0.004347826086956519
Time = 0.156522

PIMPLE: iteration 1
GAMG:  Solving for p, Initial residual = 0.07327811188125083, Final residual = 6.891885268877925e-09, No Iterations 14
time step continuity errors : sum local = 1.154701899122008e-14, global = 4.396376972733174e-15, cumulative = -2.391019303954847e-14
ExecutionTime = 12.1 s  ClockTime = 13 s

forces forces write:
    Sum of forces
        Total    : (48.45212319074555 -5.577896570282173 4.7797927011835)
        Pressure : (8.792367378893873 -5.694461678599143 4.79271648558582)
        Viscous  : (39.65975581185167 0.1165651083169697 -0.01292378440231942)
    Sum of moments
        Total    : (12.30266019464023 -21.53058903698167 -139.5517467681242)
        Pressure : (12.25895218407867 -25.58448320385074 -49.30733141373921)
        Viscous  : (0.04370801056155536 4.053894166869068 -90.24441535438496)


forceCoeffs forceCoeffs execute:
    Coefficients
        Cd       : 3.876169855259643	(pressure: 0.7033893903115097	viscous: 3.172780464948133)
        Cs       : -0.38238341609468	(pressure: -0.3834173188468655	viscous: 0.001033902752185554)
        Cl       : -0.4462317256225738	(pressure: -0.4555569342879314	viscous: 0.009325208665357574)
        CmRoll       : 0.9842128155712181	(pressure: 0.9807161747262937	viscous: 0.003496640844924429)
        CmPitch       : 11.16413974144993	(pressure: 3.944586513099136	viscous: 7.219553228350795)
        CmYaw       : -1.722447122958534	(pressure: -2.046758656308059	viscous: 0.3243115333495253)
        Cd(f)    : 2.92229774320104
        Cd(r)    : 0.9538721120586034
        Cs(f)    : -1.913638831005874
        Cs(r)    : 1.531255414911194
        Cl(f)    : 10.94102387863864
        Cl(r)    : -11.38725560426122
Courant Number mean: 0.02468738323279596 max: 0.9594526742329189
deltaT = 0.004347826086956519
Time = 0.16087

PIMPLE: iteration 1
GAMG:  Solving for p, Initial residual = 0.07193160962493077, Final residual = 6.384081430035626e-09, No Iterations 14
time step continuity errors : sum local = 1.080657372331172e-14, global = -4.126728755529529e-15, cumulative = -2.8036921795078e-14
ExecutionTime = 12.4 s  ClockTime = 14 s

forces forces write:
    Sum of forces
        Total    : (48.38598995559276 -5.74618583702086 4.652036569628057)
        Pressure : (8.871823039233657 -5.869703859862449 4.670950076587507)
        Viscous  : (39.5141669163591 0.1235180228415889 -0.01891350695945115)
    Sum of moments
        Total    : (12.58737372723214 -18.34155942575333 -139.9871608402964)
        Pressure : (12.56130333877714 -22.42112302180622 -50.12311014767414)
        Viscous  : (0.02607038845499836 4.079563596052887 -89.86405069262227)


forceCoeffs forceCoeffs execute:
    Coefficients
        Cd       : 3.87087919644742	(pressure: 0.7097458431386925	viscous: 3.161133353308728)
        Cs       : -0.3721629255702444	(pressure: -0.3736760061270005	viscous: 0.001513080556756092)
        Cl       : -0.4596948669616688	(pressure: -0.4695763087889959	viscous: 0.009881441827327107)
        CmRoll       : 1.006989898178571	(pressure: 1.004904267102171	viscous: 0.002085631076399868)
        CmPitch       : 11.19897286722371	(pressure: 4.009848811813931	viscous: 7.18912405540978)
        CmYaw       : -1.467324754060266	(pressure: -1.793689841744497	viscous: 0.3263650876842309)
        Cd(f)    : 2.942429496402281
        Cd(r)    : 0.9284497000451388
        Cs(f)    : -1.653406216845388
        Cs(r)    : 1.281243291275144
        Cl(f)    : 10.96912543374288
        Cl(r)    : -11.42882030070455
Courant Number mean: 0.02468729216011724 max: 0.9567842114593347
deltaT = 0.004347826086956518
Time = 0.165217

PIMPLE: iteration 1
GAMG:  Solving for p, Initial residual = 0.07667069212211658, Final residual = 4.354000708949211e-09, No Iterations 15
time step continuity errors : sum local = 7.389197539328073e-15, global = 2.804387981077463e-15, cumulative = -2.523253381400053e-14
ExecutionTime = 12.73 s  ClockTime = 14 s

forces forces write:
    Sum of forces
        Total    : (48.50948912875678 -5.930422860101575 6.217909473173866)
        Pressure : (9.143011706461019 -6.066094950666921 6.240041757509745)
        Viscous  : (39.36647742229576 0.1356720905653462 -0.02213228433587939)
    Sum of moments
        Total    : (15.3525247705273 -22.17455528024382 -140.8171828150253)
        Pressure : (15.33335297321235 -26.21395502003881 -51.35128600171922)
        Viscous  : (0.01917179731495661 4.039399739794983 -89.46589681330603)


forceCoeffs forceCoeffs execute:
    Coefficients
        Cd       : 3.880759130300542	(pressure: 0.7314409365168814	viscous: 3.14931819378366)
        Cs       : -0.4974327578539092	(pressure: -0.4992033406007795	viscous: 0.001770582746870351)
        Cl       : -0.4744338288081259	(pressure: -0.4852875960533536	viscous: 0.0108537672452277)
        CmRoll       : 1.228201981642184	(pressure: 1.226668237856988	viscous: 0.001533743785196528)
        CmPitch       : 11.26537462520202	(pressure: 4.108102880137538	viscous: 7.157271745064482)
        CmYaw       : -1.773964422419506	(pressure: -2.097116401603104	viscous: 0.3231519791835986)
        Cd(f)    : 3.168581546792455
        Cd(r)    : 0.7121775835080868
        Cs(f)    : -2.02268080134646
        Cs(r)    : 1.525248043492551
        Cl(f)    : 11.02815771079796
        Cl(r)    : -11.50259153960608
Courant Number mean: 0.02468720245983804 max: 0.9544731258089784
deltaT = 0.004347826086956517
Time = 0.169565

PIMPLE: iteration 1
GAMG:  Solving for p, Initial residual = 0.07166935047507832, Final residual = 5.078574100255178e-09, No Iterations 14
time step continuity errors : sum local = 8.839828576200845e-15, global = 3.570220964079836e-15, cumulative = -2.16623128499207e-14
ExecutionTime = 13.02 s  ClockTime = 14 s

forces forces write:
    Sum of forces
        Total    : (48.36455381853384 -5.986517837833278 4.793906595970281)
        Pressure : (9.146266441304967 -6.134555328906774 4.817935313415413)
        Viscous  : (39.21828737722887 0.148037491073496 -0.02402871744513185)
    Sum of moments
        Total    : (11.00362611027797 -13.58169480848169 -141.19702673156)
        Pressure : (10.96549070880774 -17.56974068850216 -52.12126201517508)
        Viscous  : (0.03813540147022819 3.988045880020467 -89.07576471638495)


forceCoeffs forceCoeffs execute:
    Coefficients
        Cd       : 3.869164305482706	(pressure: 0.7317013153043972	viscous: 3.137462990178309)
        Cs       : -0.3835125276776225	(pressure: -0.385434825073233	viscous: 0.001922297395610547)
        Cl       : -0.4789214270266622	(pressure: -0.4907644263125419	viscous: 0.01184299928587968)
        CmRoll       : 0.8802900888222372	(pressure: 0.877239256704619	viscous: 0.003050832117618255)
        CmPitch       : 11.2957621385248	(pressure: 4.169700961214006	viscous: 7.126061177310795)
        CmYaw       : -1.086535584678535	(pressure: -1.405579255080173	viscous: 0.3190436704016373)
        Cd(f)    : 2.81487224156359
        Cd(r)    : 1.054292063919116
        Cs(f)    : -1.278291848517347
        Cs(r)    : 0.8947793208397241
        Cl(f)    : 11.05630142501147
        Cl(r)    : -11.53522285203813
Courant Number mean: 0.02468711212436374 max: 0.9523500461925638
deltaT = 0.004347826086956517
Time = 0.173913

PIMPLE: iteration 1
GAMG:  Solving for p, Initial residual = 0.07652329747585361, Final residual = 4.404731488307249e-09, No Iterations 15
time step continuity errors : sum local = 7.725886707179727e-15, global = -3.099517253307925e-15, cumulative = -2.476183010322862e-14
ExecutionTime = 13.35 s  ClockTime = 15 s

forces forces write:
    Sum of forces
        Total    : (48.252858074634 -6.393378294621218 1.783818988040222)
        Pressure : (9.182803604609298 -6.552328777758921 1.800886346736752)
        Viscous  : (39.0700544700247 0.1589504831377024 -0.01706735869652967)
    Sum of moments
        Total    : (6.954927188963588 -4.965829234154807 -142.3202682321207)
        Pressure : (6.876606059188851 -8.853774370118579 -53.6358668480138)
        Viscous  : (0.07832112977473767 3.887945135963772 -88.68440138410688)


forceCoeffs forceCoeffs execute:
    Coefficients
        Cd       : 3.860228645970719	(pressure: 0.7346242883687437	viscous: 3.125604357601976)
        Cs       : -0.1427055190432178	(pressure: -0.1440709077389402	viscous: 0.001365388695722373)
        Cl       : -0.5114702635696974	(pressure: -0.5241863022207136	viscous: 0.01271603865101619)
        CmRoll       : 0.556394175117087	(pressure: 0.550128484735108	viscous: 0.006265690381979013)
        CmPitch       : 11.38562145856965	(pressure: 4.290869347841104	viscous: 7.094752110728549)
        CmYaw       : -0.3972663387323845	(pressure: -0.7083019496094862	viscous: 0.3110356108771017)
        Cd(f)    : 2.486508498102447
        Cd(r)    : 1.373720147868273
        Cs(f)    : -0.4686190982539934
        Cs(r)    : 0.3259135792107756
        Cl(f)    : 11.1298863267848
        Cl(r)    : -11.6413565903545
Courant Number mean: 0.02468702198343358 max: 0.9505405371659391
deltaT = 0.004347826086956515
Time = 0.178261

PIMPLE: iteration 1
GAMG:  Solving for p, Initial residual = 0.07415958968645363, Final residual = 6.098548933012027e-09, No Iterations 14
time step continuity errors : sum local = 1.071092804299714e-14, global = -4.197344034869468e-15, cumulative = -2.895917413809809e-14
ExecutionTime = 13.66 s  ClockTime = 15 s

forces forces write:
    Sum of forces
        Total    : (47.97027601105584 -6.307184157522842 2.574877093757237)
        Pressure : (9.051087166670388 -6.474507268700583 2.579214481061821)
        Viscous  : (38.91918884438546 0.16732311117774 -0.004337387304583336)
    Sum of moments
        Total    : (9.649290836315794 -10.89822442370527 -140.872471828868)
        Pressure : (9.520012334809048 -14.67475411167317 -52.57478825518251)
        Viscous  : (0.1292785015067468 3.776529687967904 -88.29768357368546)


forceCoeffs forceCoeffs execute:
    Coefficients
        Cd       : 3.837622080884467	(pressure: 0.7240869733336309	viscous: 3.113535107550836)
        Cs       : -0.205990167500579	(pressure: -0.2063371584849456	viscous: 0.0003469909843666668)
        Cl       : -0.5045747326018273	(pressure: -0.5179605814960465	viscous: 0.0133858488942192)
        CmRoll       : 0.7719432669052634	(pressure: 0.7616009867847237	viscous: 0.01034228012053975)
        CmPitch       : 11.26979774630944	(pressure: 4.2059830604146	viscous: 7.063814685894836)
        CmYaw       : -0.8718579538964213	(pressure: -1.173980328933854	viscous: 0.3021223750374322)
        Cd(f)    : 2.690754307347497
        Cd(r)    : 1.14686777353697
        Cs(f)    : -0.9748530376467108
        Cs(r)    : 0.7688628701461317
        Cl(f)    : 11.01751038000852
        Cl(r)    : -11.52208511261035
Courant Number mean: 0.02468693302859714 max: 0.948465004029967
deltaT = 0.004347826086956513
Time = 0.182609

PIMPLE: iteration 1
GAMG:  Solving for p, Initial residual = 0.07435306710912047, Final residual = 6.549446050335628e-09, No Iterations 14
time step continuity errors : sum local = 1.158646570263774e-14, global = 4.415084735216956e-15, cumulative = -2.454408940288114e-14
ExecutionTime = 13.96 s  ClockTime = 15 s

forces forces write:
    Sum of forces
        Total    : (47.77414801713672 -6.176818019597802 2.415206248791677)
        Pressure : (9.006153097343855 -6.352165017121945 2.403426524341091)
        Viscous  : (38.76799491979286 0.1753469975241425 0.0117797244505861)
    Sum of moments
        Total    : (10.25473649215895 -14.61804328311763 -140.6032651360723)
        Pressure : (10.07683048658592 -18.28313386470357 -52.68651372352743)
        Viscous  : (0.1779060055730303 3.665090581585937 -87.91675141254483)


forceCoeffs forceCoeffs execute:
    Coefficients
        Cd       : 3.821931841370937	(pressure: 0.7204922477875083	viscous: 3.101439593583429)
        Cs       : -0.1932164999033342	(pressure: -0.1922741219472873	viscous: -0.000942377956046888)
        Cl       : -0.4941454415678241	(pressure: -0.5081732013697555	viscous: 0.0140277598019314)
        CmRoll       : 0.820378919372716	(pressure: 0.8061464389268735	viscous: 0.01423248044584242)
        CmPitch       : 11.24826121088578	(pressure: 4.214921097882194	viscous: 7.033340113003585)
        CmYaw       : -1.16944346264941	(pressure: -1.462650709176285	viscous: 0.2932072465268749)
        Cd(f)    : 2.731344840058185
        Cd(r)    : 1.090587001312753
        Cs(f)    : -1.266051712601077
        Cs(r)    : 1.072835212697743
        Cl(f)    : 11.00118849010187
        Cl(r)    : -11.49533393166969
Courant Number mean: 0.02468684416155008 max: 0.9496490756523986
deltaT = 0.004347826086956511
Time = 0.186957

PIMPLE: iteration 1
GAMG:  Solving for p, Initial residual = 0.07176535105959966, Final residual = 6.567865585741335e-09, No Iterations 14
time step continuity errors : sum local = 1.171134362898916e-14, global = -4.453996559735337e-15, cumulative = -2.899808596261648e-14
ExecutionTime = 14.25 s  ClockTime = 16 s

forces forces write:
    Sum of forces
        Total    : (47.85718961017676 -6.465621092271708 0.9276852028038634)
        Pressure : (9.241054615636944 -6.64445725998071 0.8972685564691792)
        Viscous  : (38.61613499453982 0.178836167709002 0.03041664633468407)
    Sum of moments
        Total    : (6.969335300311624 -7.818392499997281 -140.3990927992537)
        Pressure : (6.749206582264311 -11.37948283591339 -52.82475625319508)
        Viscous  : (0.2201287180473121 3.56109033591611 -87.57433654605856)


forceCoeffs forceCoeffs execute:
    Coefficients
[...]
GAMG:  Solving for p, Initial residual = 0.4719743679739338, Final residual = 5.28682419494954e-09, No Iterations 16
time step continuity errors : sum local = 1.932614856832178e-12, global = 7.262089434291162e-13, cumulative = 2.307745878676516e-10
ExecutionTime = 293.51 s  ClockTime = 314 s

forces forces write:
    Sum of forces
        Total    : (5.168036734606648e+177 -8.492992453406989e+176 7.031125208469636e+178)
        Pressure : (5.168036734606648e+177 -8.492992453406989e+176 7.031125208469636e+178)
        Viscous  : (2.304345968295535e+87 -2.292525201689009e+86 1.038782649337901e+87)
    Sum of moments
        Total    : (1.683796848518611e+179 -4.05294053010677e+179 -1.722929531780127e+178)
        Pressure : (1.683796848518611e+179 -4.05294053010677e+179 -1.722929531780127e+178)
        Viscous  : (2.380639115841927e+87 -5.212091418426001e+87 -6.524224909444374e+87)


forceCoeffs forceCoeffs execute:
    Coefficients
        Cd       : 4.134429387685318e+176	(pressure: 4.134429387685318e+176	viscous: 1.843476774636428e+86)
        Cs       : -5.624900166775708e+177	(pressure: -5.624900166775708e+177	viscous: -8.310261194703204e+85)
        Cl       : -6.794393962725591e+175	(pressure: -6.794393962725591e+175	viscous: -1.834020161351207e+85)
        CmRoll       : 1.347037478814889e+178	(pressure: 1.347037478814889e+178	viscous: 1.904511292673542e+86)
        CmPitch       : 1.378343625424102e+177	(pressure: 1.378343625424102e+177	viscous: 5.219379927555499e+86)
        CmYaw       : -3.242352424085416e+178	(pressure: -3.242352424085416e+178	viscous: -4.1696731347408e+86)
        Cd(f)    : 1.367709625753315e+178
        Cd(r)    : -1.326365331876462e+178
        Cs(f)    : -3.523597432424201e+178
        Cs(r)    : 2.96110741574663e+178
        Cl(f)    : 1.344371655610474e+177
        Cl(r)    : -1.41231559523773e+177
Courant Number mean: 0.0002449518377892434 max: 1.705547908472649
deltaT = 5.645508865879724e-92
Time = 2.21022

PIMPLE: iteration 1
GAMG:  Solving for p, Initial residual = 0.4719725589041229, Final residual = 5.284098790210624e-09, No Iterations 16
time step continuity errors : sum local = 1.931627117475433e-12, global = 7.258382783868973e-13, cumulative = 2.315004261460385e-10
ExecutionTime = 293.84 s  ClockTime = 314 s

forces forces write:
    Sum of forces
        Total    : (1.50295075528277e+178 -2.469526929789777e+177 2.044959590250398e+179)
        Pressure : (1.50295075528277e+178 -2.469526929789777e+177 2.044959590250398e+179)
        Viscous  : (3.929925687977194e+87 -3.909599268424324e+86 1.771623882975635e+87)
    Sum of moments
        Total    : (4.897187743684493e+179 -1.178762864741599e+180 -5.010219122925841e+178)
        Pressure : (4.897187743684493e+179 -1.178762864741599e+180 -5.010219122925841e+178)
        Viscous  : (4.060120023872902e+87 -8.889097758124416e+87 -1.112649391513134e+88)


forceCoeffs forceCoeffs execute:
    Coefficients
        Cd       : 1.202360604226216e+177	(pressure: 1.202360604226216e+177	viscous: 3.143940550381755e+86)
        Cs       : -1.635967672200318e+178	(pressure: -1.635967672200318e+178	viscous: -1.417299106380508e+86)
        Cl       : -1.975621543831821e+176	(pressure: -1.975621543831821e+176	viscous: -3.127679414739459e+85)
        CmRoll       : 3.917750194947594e+178	(pressure: 3.917750194947594e+178	viscous: 3.248096019098321e+86)
        CmPitch       : 4.008175298340672e+177	(pressure: 4.008175298340672e+177	viscous: 8.901195132105073e+86)
        CmYaw       : -9.430102917932793e+178	(pressure: -9.430102917932793e+178	viscous: -7.111278206499531e+86)
        Cd(f)    : 3.977868225158905e+178
        Cd(r)    : -3.857632164736283e+178
        Cs(f)    : -1.024808675403295e+179
        Cs(r)    : 8.612119081832634e+178
        Cl(f)    : 3.909394221149081e+177
        Cl(r)    : -4.106956375532263e+177
Courant Number mean: 0.0002449513923128721 max: 1.705547909503487
deltaT = 3.310085184017622e-92
Time = 2.21022

PIMPLE: iteration 1
GAMG:  Solving for p, Initial residual = 0.4719743671332242, Final residual = 5.286823126079687e-09, No Iterations 16
time step continuity errors : sum local = 1.932614491775934e-12, global = 7.262088316218208e-13, cumulative = 2.322266349776603e-10
ExecutionTime = 294.18 s  ClockTime = 315 s

forces forces write:
    Sum of forces
        Total    : (4.373018844083738e+178 -7.186506283124737e+177 5.949499670863335e+179)
        Pressure : (4.373018844083738e+178 -7.186506283124737e+177 5.949499670863335e+179)
        Viscous  : (6.70309750752264e+87 -6.668719308626568e+86 3.021708065514366e+87)
    Sum of moments
        Total    : (1.424771668085335e+180 -3.429460611264426e+180 -1.457886931009007e+179)
        Pressure : (1.424771668085335e+180 -3.429460611264426e+180 -1.457886931009007e+179)
        Viscous  : (6.925025271375262e+87 -1.516141811820739e+88 -1.897828298251344e+88)


forceCoeffs forceCoeffs execute:
    Coefficients
        Cd       : 3.49841507526699e+177	(pressure: 3.49841507526699e+177	viscous: 5.362478006018112e+86)
        Cs       : -4.759599736690668e+178	(pressure: -4.759599736690668e+178	viscous: -2.417366452411492e+86)
        Cl       : -5.749205026499789e+176	(pressure: -5.749205026499789e+176	viscous: -5.334975446901254e+85)
        CmRoll       : 1.139817334468268e+179	(pressure: 1.139817334468268e+179	viscous: 5.540020217100209e+86)
        CmPitch       : 1.166309544807206e+178	(pressure: 1.166309544807206e+178	viscous: 1.518262638601075e+87)
        CmYaw       : -2.74356848901154e+179	(pressure: -2.74356848901154e+179	viscous: -1.212913449456591e+87)
        Cd(f)    : 1.157309409844603e+179
        Cd(r)    : -1.122325259091933e+179
        Cs(f)    : -2.981548475846074e+179
        Cs(r)    : 2.505588502177007e+179
        Cl(f)    : 1.137563519674707e+178
        Cl(r)    : -1.195055569939705e+178
Courant Number mean: 0.0002449518377346059 max: 1.705547908472688
deltaT = 1.940775259125842e-92
Time = 2.21022

PIMPLE: iteration 1
GAMG:  Solving for p, Initial residual = 0.471972559820813, Final residual = 5.284099864496023e-09, No Iterations 16
time step continuity errors : sum local = 1.931627505334109e-12, global = 7.258384384382953e-13, cumulative = 2.329524734160986e-10
ExecutionTime = 294.49 s  ClockTime = 315 s

forces forces write:
    Sum of forces
        Total    : (1.271745985749384e+179 -2.0896231567959e+178 1.73037610823475e+180)
        Pressure : (1.271745985749384e+179 -2.0896231567959e+178 1.73037610823475e+180)
        Viscous  : (1.143173575876173e+88 -1.13725951288402e+87 5.153465882422539e+87)
    Sum of moments
        Total    : (4.143836114670577e+180 -9.974295997899856e+180 -4.239471584472566e+179)
        Pressure : (4.143836114670577e+180 -9.974295997899856e+180 -4.239471584472566e+179)
        Viscous  : (1.18104588843658e+88 -2.585744318787086e+88 -3.236577579810804e+88)


forceCoeffs forceCoeffs execute:
    Coefficients
        Cd       : 1.017396788599507e+178	(pressure: 1.017396788599507e+178	viscous: 9.145388607009382e+86)
        Cs       : -1.384300886587799e+179	(pressure: -1.384300886587799e+179	viscous: -4.12277270593803e+86)
        Cl       : -1.671698525436719e+177	(pressure: -1.671698525436719e+177	viscous: -9.098076103072162e+85)
        CmRoll       : 3.315068891736461e+179	(pressure: 3.315068891736461e+179	viscous: 9.44836710749264e+86)
        CmPitch       : 3.391577267578052e+178	(pressure: 3.391577267578052e+178	viscous: 2.589262063848643e+87)
        CmYaw       : -7.979436798319884e+179	(pressure: -7.979436798319884e+179	viscous: -2.068595455029668e+87)
        Cd(f)    : 3.365938731166436e+179
        Cd(r)    : -3.264199052306485e+179
        Cs(f)    : -8.671587241613784e+179
        Cs(r)    : 7.287286355025984e+179
        Cl(f)    : 3.307992341306216e+178
        Cl(r)    : -3.475162193849889e+178
Courant Number mean: 0.0002449513923722863 max: 1.705547909503444
deltaT = 1.137918934033862e-92
Time = 2.21022

PIMPLE: iteration 1
GAMG:  Solving for p, Initial residual = 0.4719743661602141, Final residual = 5.286822015658492e-09, No Iterations 16
time step continuity errors : sum local = 1.93261408993135e-12, global = 7.262086649387827e-13, cumulative = 2.336786820810374e-10
ExecutionTime = 294.82 s  ClockTime = 315 s

forces forces write:
    Sum of forces
        Total    : (3.700301532817113e+179 -6.081001314381766e+178 5.034264681647655e+180)
        Pressure : (3.700301532817113e+179 -6.081001314381766e+178 5.034264681647655e+180)
        Viscous  : (1.949859826867436e+88 -1.939861980926614e+87 8.789826765911909e+87)
    Sum of moments
        Total    : (1.205593313497204e+181 -2.901892971230479e+181 -1.233616785642302e+180)
        Pressure : (1.205593313497204e+181 -2.901892971230479e+181 -1.233616785642302e+180)
        Viscous  : (2.0144159541814e+88 -4.410294775545192e+88 -5.520582890494528e+88)


forceCoeffs forceCoeffs execute:
    Coefficients
        Cd       : 2.96024122625369e+178	(pressure: 2.96024122625369e+178	viscous: 1.559887861493948e+87)
        Cs       : -4.027411745318123e+179	(pressure: -4.027411745318123e+179	viscous: -7.031861412729526e+86)
        Cl       : -4.864801051505412e+177	(pressure: -4.864801051505412e+177	viscous: -1.551889584741291e+86)
        CmRoll       : 9.644746507977631e+179	(pressure: 9.644746507977631e+179	viscous: 1.61153276334512e+87)
        CmPitch       : 9.868934285138413e+178	(pressure: 9.868934285138413e+178	viscous: 4.416466312395622e+87)
        CmYaw       : -2.321514376984383e+180	(pressure: -2.321514376984383e+180	viscous: -3.528235820436153e+87)
        Cd(f)    : 9.792758569290316e+179
        Cd(r)    : -9.496734446664947e+179
        Cs(f)    : -2.522884964250289e+180
        Cs(r)    : 2.120143789718477e+180
        Cl(f)    : 9.625694232563142e+178
        Cl(r)    : -1.011217433771368e+179
Courant Number mean: 0.0002449518376714473 max: 1.705547908472734
deltaT = 6.671867312439395e-93
Time = 2.21022

PIMPLE: iteration 1
GAMG:  Solving for p, Initial residual = 0.4719725608813169, Final residual = 5.284101139543405e-09, No Iterations 16
time step continuity errors : sum local = 1.931627938832775e-12, global = 7.258385937911861e-13, cumulative = 2.344045206748286e-10
ExecutionTime = 295.13 s  ClockTime = 316 s

forces forces write:
    Sum of forces
        Total    : (1.07610831981379e+180 -1.768161558462346e+179 1.464186179514891e+181)
        Pressure : (1.07610831981379e+180 -1.768161558462346e+179 1.464186179514891e+181)
        Viscous  : (3.325370311731644e+88 -3.308162473150636e+87 1.499088557605527e+88)
    Sum of moments
        Total    : (3.506375376168142e+181 -8.439915077195395e+181 -3.587291177613958e+180)
        Pressure : (3.506375376168142e+181 -8.439915077195395e+181 -3.587291177613958e+180)
        Viscous  : (3.435537396377236e+88 -7.521656287307837e+88 -9.414856019469005e+88)


forceCoeffs forceCoeffs execute:
    Coefficients
        Cd       : 8.60886655851032e+178	(pressure: 8.60886655851032e+178	viscous: 2.660296249385315e+87)
        Cs       : -1.171348943611913e+180	(pressure: -1.171348943611913e+180	viscous: -1.199270846084421e+87)
        Cl       : -1.414529246769876e+178	(pressure: -1.414529246769876e+178	viscous: -2.646529978520509e+86)
        CmRoll       : 2.805100300934513e+180	(pressure: 2.805100300934513e+180	viscous: 2.748429917101789e+87)
        CmPitch       : 2.869832942091166e+179	(pressure: 2.869832942091166e+179	viscous: 7.531884815575202e+87)
        CmYaw       : -6.751932061756315e+180	(pressure: -6.751932061756315e+180	viscous: -6.017325029846268e+87)
        Cd(f)    : 2.848144633727065e+180
        Cd(r)    : -2.762055968141962e+180
        Cs(f)    : -7.337606533562271e+180
        Cs(r)    : 6.166257589950359e+180
        Cl(f)    : 2.799106479752672e+179
        Cl(r)    : -2.94055940442966e+179
Courant Number mean: 0.000244951392441074 max: 1.705547909503395
deltaT = 3.911861563819713e-93
Time = 2.21022

PIMPLE: iteration 1
GAMG:  Solving for p, Initial residual = 0.4719743650340884, Final residual = 5.286820741411217e-09, No Iterations 16
time step continuity errors : sum local = 1.932613612012262e-12, global = 7.262085132000661e-13, cumulative = 2.351307291880286e-10
ExecutionTime = 295.46 s  ClockTime = 316 s

forces forces write:
    Sum of forces
        Total    : (3.131070842875624e+180 -5.145559861363738e+179 4.259823756437051e+181)
        Pressure : (3.131070842875624e+180 -5.145559861363738e+179 4.259823756437051e+181)
        Viscous  : (5.671935028785895e+88 -5.6428604521567e+87 2.556866909075505e+88)
    Sum of moments
        Total    : (1.020131997500823e+182 -2.455483063049516e+182 -1.043846916280146e+181)
        Pressure : (1.020131997500823e+182 -2.455483063049516e+182 -1.043846916280146e+181)
        Viscous  : (5.859720931735093e+88 -1.282907672686193e+89 -1.605879591330214e+89)


forceCoeffs forceCoeffs execute:
    Coefficients
        Cd       : 2.504856674300499e+179	(pressure: 2.504856674300499e+179	viscous: 4.537548023028715e+87)
        Cs       : -3.40785900514964e+180	(pressure: -3.40785900514964e+180	viscous: -2.045493527260403e+87)
        Cl       : -4.116447889090989e+178	(pressure: -4.116447889090989e+178	viscous: -4.514288361725359e+86)
        CmRoll       : 8.161055980006582e+180	(pressure: 8.161055980006582e+180	viscous: 4.687776745388073e+87)
        CmPitch       : 8.350775330241168e+179	(pressure: 8.350775330241168e+179	viscous: 1.284703673064171e+88)
        CmYaw       : -1.964386450439613e+181	(pressure: -1.964386450439613e+181	viscous: -1.026326138148954e+88)
        Cd(f)    : 8.286298813721607e+180
        Cd(r)    : -8.035813146291557e+180
        Cs(f)    : -2.134779400697095e+181
        Cs(r)    : 1.793993500182131e+181
        Cl(f)    : 8.144952935786619e+179
        Cl(r)    : -8.556597724695717e+179
Courant Number mean: 0.0002449518375984541 max: 1.705547908472788
deltaT = 2.293609897667746e-93
Time = 2.21022

PIMPLE: iteration 1
GAMG:  Solving for p, Initial residual = 0.4719725621078252, Final residual = 5.284102539293757e-09, No Iterations 16
time step continuity errors : sum local = 1.931628462327521e-12, global = 7.258387796896425e-13, cumulative = 2.358565679677183e-10
ExecutionTime = 295.79 s  ClockTime = 316 s

forces forces write:
    Sum of forces
        Total    : (9.105663360528289e+180 -1.496151752292486e+180 1.238945241884314e+182)
        Pressure : (9.105663360528289e+180 -1.496151752292486e+180 1.238945241884314e+182)
        Viscous  : (9.673148425149368e+88 -9.623077636441433e+87 4.360689651221289e+88)
    Sum of moments
        Total    : (2.966977597022213e+182 -7.141573692583391e+182 -3.035438271746582e+181)
        Pressure : (2.966977597022213e+182 -7.141573692583391e+182 -3.035438271746582e+181)
        Viscous  : (9.993614627449333e+88 -2.187970175104341e+89 -2.738680155632451e+89)


forceCoeffs forceCoeffs execute:
    Coefficients
        Cd       : 7.28453068842263e+179	(pressure: 7.28453068842263e+179	viscous: 7.738518740119492e+87)
        Cs       : -9.91156193507451e+180	(pressure: -9.91156193507451e+180	viscous: -3.488551720977031e+87)
        Cl       : -1.196921401833989e+179	(pressure: -1.196921401833989e+179	viscous: -7.698462109153145e+86)
        CmRoll       : 2.37358207761777e+181	(pressure: 2.37358207761777e+181	viscous: 7.994891701959465e+87)
        CmPitch       : 2.428350617397265e+180	(pressure: 2.428350617397265e+180	viscous: 2.190944124505961e+88)
        CmYaw       : -5.713258954066712e+181	(pressure: -5.713258954066712e+181	viscous: -1.750376140083473e+88)
        Cd(f)    : 2.410004731059883e+181
        Cd(r)    : -2.337159424175657e+181
        Cs(f)    : -6.208837050820437e+181
        Cs(r)    : 5.217680857312986e+181
        Cl(f)    : 2.368504547305566e+180
        Cl(r)    : -2.488196687488965e+180
Courant Number mean: 0.000244951392520722 max: 1.705547909503336
deltaT = 1.344793590896931e-93
Time = 2.21022

PIMPLE: iteration 1
GAMG:  Solving for p, Initial residual = 0.4719743637307067, Final residual = 5.286819183537307e-09, No Iterations 16
time step continuity errors : sum local = 1.932613079862491e-12, global = 7.262082822967791e-13, cumulative = 2.365827762500151e-10
ExecutionTime = 296.12 s  ClockTime = 317 s

forces forces write:
    Sum of forces
        Total    : (2.649407038235227e+181 -4.354020421621494e+180 3.604518014353447e+182)
        Pressure : (2.649407038235227e+181 -4.354020421621494e+180 3.604518014353447e+182)
        Viscous  : (1.649905630905551e+89 -1.641450867570962e+88 7.437653176961283e+88)
    Sum of moments
        Total    : (8.632009010837847e+182 -2.077746087247292e+183 -8.832700164232786e+181)
        Pressure : (8.632009010837847e+182 -2.077746087247292e+183 -8.832700164232786e+181)
        Viscous  : (1.704530214642438e+89 -3.73184139337764e+89 -4.67133542897838e+89)


forceCoeffs forceCoeffs execute:
    Coefficients
        Cd       : 2.119525630588181e+180	(pressure: 2.119525630588181e+180	viscous: 1.31992450472444e+88)
        Cs       : -2.883614411482757e+181	(pressure: -2.883614411482757e+181	viscous: -5.950122541569025e+87)
        Cl       : -3.483216337297195e+179	(pressure: -3.483216337297195e+179	viscous: -1.313160694056769e+87)
        CmRoll       : 6.905607208670276e+181	(pressure: 6.905607208670276e+181	viscous: 1.36362417171395e+88)
        CmPitch       : 7.066160131386228e+180	(pressure: 7.066160131386228e+180	viscous: 3.737068343182703e+88)
        CmYaw       : -1.662196869797833e+182	(pressure: -1.662196869797833e+182	viscous: -2.985473114702111e+88)
        Cd(f)    : 7.011583490199685e+181
        Cd(r)    : -6.799630927140866e+181
        Cs(f)    : -1.806377590371971e+182
        Cs(r)    : 1.518016149223695e+182
        Cl(f)    : 6.891999314521368e+180
        Cl(r)    : -7.240320948251088e+180
Courant Number mean: 0.0002449518375141017 max: 1.705547908472849
deltaT = 7.884818621724091e-94
Time = 2.21022

PIMPLE: iteration 1
GAMG:  Solving for p, Initial residual = 0.4719725635184704, Final residual = 5.284104152805636e-09, No Iterations 16
time step continuity errors : sum local = 1.93162903657116e-12, global = 7.258390319623977e-13, cumulative = 2.373086152819775e-10
ExecutionTime = 296.45 s  ClockTime = 317 s

forces forces write:
    Sum of forces
        Total    : (7.70490302388086e+181 -1.265986380302974e+181 1.04835395813731e+183)
        Pressure : (7.70490302388086e+181 -1.265986380302974e+181 1.04835395813731e+183)
        Viscous  : (2.813815946514973e+89 -2.799245828613192e+88 1.268478398933646e+89)
    Sum of moments
        Total    : (2.510557383765515e+183 -6.042960995314956e+183 -2.568479107401075e+182)
        Pressure : (2.510557383765515e+183 -6.042960995314956e+183 -2.568479107401075e+182)
        Viscous  : (2.907036786120615e+89 -6.364573734037899e+89 -7.966524814095901e+89)


forceCoeffs forceCoeffs execute:
    Coefficients
        Cd       : 6.163922419104687e+180	(pressure: 6.163922419104687e+180	viscous: 2.251052757211978e+88)
        Cs       : -8.38683166509848e+181	(pressure: -8.38683166509848e+181	viscous: -1.014782719146917e+88)
        Cl       : -1.012789104242379e+180	(pressure: -1.012789104242379e+180	viscous: -2.239396662890553e+87)
        CmRoll       : 2.008445907012412e+182	(pressure: 2.008445907012412e+182	viscous: 2.325629428896491e+88)
        CmPitch       : 2.05478328592086e+181	(pressure: 2.05478328592086e+181	viscous: 6.373219851276721e+88)
        CmYaw       : -4.834368796251964e+182	(pressure: -4.834368796251964e+182	viscous: -5.091658987230318e+88)
        Cd(f)    : 2.039265519107935e+182
        Cd(r)    : -1.977626294916888e+182
        Cs(f)    : -5.253710379506888e+182
        Cs(r)    : 4.41502721299704e+182
        Cl(f)    : 2.004143830708741e+181
        Cl(r)    : -2.105422741132978e+181
Courant Number mean: 0.0002449513926129538 max: 1.70554790950327
deltaT = 4.623041415483011e-94
Time = 2.21022

PIMPLE: iteration 1
