/*---------------------------------------------------------------------------*\
| =========                 |                                                 |
| \\      /  F ield         | OpenFOAM: The Open Source CFD Toolbox           |
|  \\    /   O peration     | Version:  v1906                                 |
|   \\  /    A nd           | Web:      www.OpenFOAM.com                      |
|    \\/     M anipulation  |                                                 |
\*---------------------------------------------------------------------------*/
Build  : v1906 OPENFOAM=1906
Arch   : "LSB;label=32;scalar=64"
Exec   : pimpleFoam -parallel
Date   : Feb 02 2021
Time   : 13:14:37
Host   : DESKTOP-BF1RMVV
PID    : 556
I/O    : uncollated
Case   : /mnt/c/OpenFoam/icoFoam/TurbulentMapleBlankBlade
nProcs : 4
Hosts  :
(
    (DESKTOP-BF1RMVV 4)
)
Pstream initialized with:
    floatTransfer      : 0
    nProcsSimpleSum    : 0
    commsType          : nonBlocking
    polling iterations : 0
trapFpe: Floating point exception trapping enabled (FOAM_SIGFPE).
fileModificationChecking : Monitoring run-time modified files using timeStampMaster (fileModificationSkew 10)
allowSystemOperations : Allowing user-supplied system call operations

// * * * * * * * * * * * * * * * * * * * * * * * * * * * * * * * * * * * * * //
Create time

--> FOAM Warning : 
    From function static Foam::IOstreamOption::compressionType Foam::IOstreamOption::compressionEnum(const Foam::word&)
    in file db/IOstreams/IOstreams/IOstreamOption.C at line 86
    Unknown compression specifier 'uncompressed', assuming no compression
Create mesh for time = 0


PIMPLE: Operating solver in PISO mode

Reading field p

Reading field U

Reading/calculating face flux field phi

Selecting incompressible transport model Newtonian
Selecting turbulence model type laminar
Selecting laminar stress model Stokes
No MRF models present

No finite volume options present
Courant Number mean: 5.678687012054804 max: 228.9423042348078
forces forces:
    rho: rhoInf
    Freestream density (rhoInf) set to 1
    Not including porosity effects

forceCoeffs forceCoeffs:
    rho: rhoInf
    Freestream density (rhoInf) set to 1
    Not including porosity effects

surfaceFieldValue surfaceFieldValue:
    operation     = areaAverage



Starting time loop

Courant Number mean: 0.02468994353067306 max: 0.9954013227600339
deltaT = 0.004347826086956522
Time = 0.00434783

PIMPLE: iteration 1
GAMG:  Solving for p, Initial residual = 1, Final residual = 9.049059922473506e-09, No Iterations 22
time step continuity errors : sum local = 3.460674666435579e-15, global = -1.298532006273839e-15, cumulative = -1.298532006273839e-15
ExecutionTime = 0.36 s  ClockTime = 1 s

forces forces write:
    Sum of forces
        Total    : (319.8043328289525 -226.1481014010946 -10.41293655127689)
        Pressure : (269.360686009182 -225.1729829218841 -10.39292943721967)
        Viscous  : (50.44364681977044 -0.9751184792104516 -0.02000711405721875)
    Sum of moments
        Total    : (10.71247753750255 -19.32814351234255 -2118.567576435507)
        Pressure : (10.63457373149682 -24.51314629523627 -1999.21457383365)
        Viscous  : (0.07790380600573024 5.185002782893721 -119.3530026018571)


forceCoeffs forceCoeffs execute:
    Coefficients
        Cd       : 0.255843466263162	(pressure: 0.2154885488073456	viscous: 0.04035491745581635)
        Cs       : 0.008330349241021516	(pressure: 0.008314343549775741	viscous: 1.6005691245775e-05)
        Cl       : -0.1809184811208757	(pressure: -0.1801383863375073	viscous: -0.0007800947833683613)
        CmRoll       : 0.008569982030002043	(pressure: 0.008507658985197458	viscous: 6.23230448045842e-05)
        CmPitch       : 1.694854061148406	(pressure: 1.59937165906692	viscous: 0.09548240208148567)
        CmYaw       : -0.01546251480987404	(pressure: -0.01961051703618902	viscous: 0.004148002226314978)
        Cd(f)    : 0.136491715161583
        Cd(r)    : 0.119351751101579
        Cs(f)    : -0.01129734018936328
        Cs(r)    : 0.0196276894303848
        Cl(f)    : 1.604394820587968
        Cl(r)    : -1.785313301708843
Courant Number mean: 0.02469099140271774 max: 1.014411609982504
deltaT = 0.004347826086956522
Time = 0.00869565

PIMPLE: iteration 1
GAMG:  Solving for p, Initial residual = 0.3181216743344388, Final residual = 6.16988326391194e-09, No Iterations 20
time step continuity errors : sum local = 1.820251839525866e-14, global = 6.946917715937589e-15, cumulative = 5.64838570966375e-15
ExecutionTime = 0.53 s  ClockTime = 1 s

forces forces write:
    Sum of forces
        Total    : (60.98288825987043 -10.90583630249395 4.637837358373006)
        Pressure : (11.34862353100734 -10.02517792627712 4.657932992368435)
        Viscous  : (49.63426472886309 -0.8806583762168283 -0.02009563399542885)
    Sum of moments
        Total    : (5.965485681944314 7.192285196296172 -201.3143701957586)
        Pressure : (5.908164320848896 2.05404566943053 -83.91694183209181)
        Viscous  : (0.05732136109541873 5.138239526865642 -117.3974283636667)


forceCoeffs forceCoeffs execute:
    Coefficients
        Cd       : 0.04878631060789634	(pressure: 0.009078898824805871	viscous: 0.03970741178309047)
        Cs       : -0.003710269886698405	(pressure: -0.003726346393894748	viscous: 1.607650719634308e-05)
        Cl       : -0.008724669041995156	(pressure: -0.008020142341021694	viscous: -0.0007045267009734627)
        CmRoll       : 0.004772388545555452	(pressure: 0.004726531456679117	viscous: 4.585708887633499e-05)
        CmPitch       : 0.1610514961566069	(pressure: 0.06713355346567346	viscous: 0.0939179426909334)
        CmYaw       : 0.005753828157036938	(pressure: 0.001643236535544424	viscous: 0.004110591621492514)
        Cd(f)    : 0.02916554384950362
        Cd(r)    : 0.01962076675839272
        Cs(f)    : 0.003898693213687735
        Cs(r)    : -0.00760896310038614
        Cl(f)    : 0.1566891616356093
        Cl(r)    : -0.1654138306776044
Courant Number mean: 0.02469086391978229 max: 1.011420283099484
deltaT = 0.004347826086956522
Time = 0.0130435

PIMPLE: iteration 1
GAMG:  Solving for p, Initial residual = 0.1485399886503423, Final residual = 8.875647688993262e-09, No Iterations 15
time step continuity errors : sum local = 1.37129789936896e-14, global = -5.07171505199537e-15, cumulative = 5.766706576683794e-16
ExecutionTime = 0.6899999999999999 s  ClockTime = 1 s

forces forces write:
    Sum of forces
        Total    : (60.90856991920796 -11.09714557037861 4.854023215480464)
        Pressure : (12.01444642295374 -10.25909261900538 4.851508610701535)
        Viscous  : (48.89412349625422 -0.8380529513732305 0.002514604778929333)
    Sum of moments
        Total    : (11.98869068397653 -9.582498351026022 -205.4850153369959)
        Pressure : (11.89107874394848 -14.55650393376606 -89.92040416109759)
        Viscous  : (0.09761194002805604 4.974005582740034 -115.5646111758983)


forceCoeffs forceCoeffs execute:
    Coefficients
        Cd       : 0.04872685593536637	(pressure: 0.009611557138362989	viscous: 0.03911529879700338)
        Cs       : -0.003883218572384372	(pressure: -0.003881206888561228	viscous: -2.011683823143466e-06)
        Cl       : -0.008877716456302885	(pressure: -0.008207274095204302	viscous: -0.0006704423610985845)
        CmRoll       : 0.009590952547181227	(pressure: 0.009512862995158782	viscous: 7.808955202244484e-05)
        CmPitch       : 0.1643880122695967	(pressure: 0.07193632332887807	viscous: 0.09245168894071865)
        CmYaw       : -0.007665998680820817	(pressure: -0.01164520314701284	viscous: 0.003979204466192028)
        Cd(f)    : 0.03395438051486441
        Cd(r)    : 0.01477247542050196
        Cs(f)    : -0.009607607967013002
        Cs(r)    : 0.005724389394628631
        Cl(f)    : 0.1599491540414453
        Cl(r)    : -0.1688268704977481
Courant Number mean: 0.02469073504962587 max: 1.009304226155662
deltaT = 0.004347826086956522
Time = 0.0173913

PIMPLE: iteration 1
GAMG:  Solving for p, Initial residual = 0.09629360491332346, Final residual = 9.930216437327696e-09, No Iterations 14
time step continuity errors : sum local = 1.438359794279616e-14, global = -5.479151387549518e-15, cumulative = -4.902480729881139e-15
ExecutionTime = 0.85 s  ClockTime = 1 s

forces forces write:
    Sum of forces
        Total    : (60.39115407571103 -11.44269699112647 4.81210170132485)
        Pressure : (12.16689566175043 -10.64903732345349 4.788135795944878)
        Viscous  : (48.2242584139606 -0.7936596676729747 0.0239659053799714)
    Sum of moments
        Total    : (13.57116536132669 -16.71981383977341 -206.5615545502826)
        Pressure : (13.42588926326825 -21.55377285875765 -92.74752709004575)
        Viscous  : (0.1452760980584358 4.83395901898424 -113.8140274602369)


forceCoeffs forceCoeffs execute:
    Coefficients
        Cd       : 0.04831292326056883	(pressure: 0.009733516529400346	viscous: 0.03857940673116848)
        Cs       : -0.00384968136105988	(pressure: -0.003830508636755903	viscous: -1.917272430397713e-05)
        Cl       : -0.009154157592901172	(pressure: -0.008519229858762793	viscous: -0.0006349277341383797)
        CmRoll       : 0.01085693228906135	(pressure: 0.0107407114106146	viscous: 0.0001162208784467487)
        CmPitch       : 0.1652492436402261	(pressure: 0.07419802167203661	viscous: 0.0910512219681895)
        CmYaw       : -0.01337585107181873	(pressure: -0.01724301828700612	viscous: 0.003867167215187392)
        Cd(f)    : 0.03501339391934577
        Cd(r)    : 0.01329952934122306
        Cs(f)    : -0.01530069175234867
        Cs(r)    : 0.01145101039128879
        Cl(f)    : 0.1606721648437755
        Cl(r)    : -0.1698263224366767
Courant Number mean: 0.02469060876022623 max: 1.007593930121787
deltaT = 0.004347826086956522
Time = 0.0217391

PIMPLE: iteration 1
GAMG:  Solving for p, Initial residual = 0.08225250062495866, Final residual = 9.108365392397932e-09, No Iterations 14
time step continuity errors : sum local = 1.294792443093051e-14, global = -4.931368737231343e-15, cumulative = -9.833849467112482e-15
ExecutionTime = 1.01 s  ClockTime = 2 s

forces forces write:
    Sum of forces
        Total    : (60.2345908188811 -11.87050956774074 3.581279021871131)
        Pressure : (12.61829936060519 -11.12824619999146 3.545704768126051)
        Viscous  : (47.61629145827592 -0.7422633677492797 0.03557425374508005)
    Sum of moments
        Total    : (10.52279357316147 -11.03279073721491 -207.6763587877036)
        Pressure : (10.35272504302968 -15.76792506456268 -95.52994311746957)
        Viscous  : (0.1700685301317854 4.735134327347772 -112.1464156702341)


forceCoeffs forceCoeffs execute:
    Coefficients
        Cd       : 0.04818767265510489	(pressure: 0.01009463948848415	viscous: 0.03809303316662074)
        Cs       : -0.002865023217496905	(pressure: -0.002836563814500841	viscous: -2.845940299606404e-05)
        Cl       : -0.009496407654192589	(pressure: -0.008902596959993165	viscous: -0.0005938106941994238)
        CmRoll       : 0.008418234858529173	(pressure: 0.008282180034423745	viscous: 0.0001360548241054283)
        CmPitch       : 0.1661410870301629	(pressure: 0.07642395449397565	viscous: 0.08971713253618725)
        CmYaw       : -0.008826232589771926	(pressure: -0.01261434005165014	viscous: 0.003788107461878218)
        Cd(f)    : 0.03251207118608162
        Cd(r)    : 0.01567560146902327
        Cs(f)    : -0.01025874419852038
        Cs(r)    : 0.007393720981023473
        Cl(f)    : 0.1613928832030666
        Cl(r)    : -0.1708892908572592
Courant Number mean: 0.02469048551929835 max: 1.00665170012564
deltaT = 0.004347826086956522
Time = 0.026087

PIMPLE: iteration 1
GAMG:  Solving for p, Initial residual = 0.07629815752012231, Final residual = 7.335387596292637e-09, No Iterations 14
time step continuity errors : sum local = 1.03362138073738e-14, global = -3.9351175447397e-15, cumulative = -1.376896701185218e-14
ExecutionTime = 1.21 s  ClockTime = 2 s

forces forces write:
    Sum of forces
        Total    : (60.01014085198917 -11.91700802069973 3.704504290281042)
        Pressure : (12.94270456182083 -11.2309768218673 3.658528708407056)
        Viscous  : (47.06743629016834 -0.6860311988324235 0.04597558187398566)
    Sum of moments
        Total    : (11.59809550063315 -14.63923501497509 -205.9346049851651)
        Pressure : (11.40313874635403 -19.26842183776844 -95.32517317273054)
        Viscous  : (0.1949567542791243 4.629186822793346 -110.6094318124346)


forceCoeffs forceCoeffs execute:
    Coefficients
        Cd       : 0.04800811268159133	(pressure: 0.01035416364945667	viscous: 0.03765394903213467)
        Cs       : -0.002963603432224834	(pressure: -0.002926822966725645	viscous: -3.678046549918853e-05)
        Cl       : -0.009533606416559781	(pressure: -0.008984781457493842	viscous: -0.0005488249590659388)
        CmRoll       : 0.009278476400506521	(pressure: 0.009122510997083222	viscous: 0.0001559654034232995)
        CmPitch       : 0.1647476839881321	(pressure: 0.07626013853818443	viscous: 0.08848754544994765)
        CmYaw       : -0.01171138801198007	(pressure: -0.01541473747021475	viscous: 0.003703349458234677)
        Cd(f)    : 0.03328253274130219
        Cd(r)    : 0.01472557994028914
        Cs(f)    : -0.01319318972809249
        Cs(r)    : 0.01022958629586766
        Cl(f)    : 0.1599808807798522
        Cl(r)    : -0.169514487196412
Courant Number mean: 0.02469036563019715 max: 1.006039343389172
deltaT = 0.004347826086956522
Time = 0.0304348

PIMPLE: iteration 1
GAMG:  Solving for p, Initial residual = 0.07599922772413711, Final residual = 7.759675508993978e-09, No Iterations 14
time step continuity errors : sum local = 1.086232387349626e-14, global = -4.137768322273953e-15, cumulative = -1.790673533412614e-14
ExecutionTime = 1.41 s  ClockTime = 2 s

forces forces write:
    Sum of forces
        Total    : (60.17029879098548 -12.27847432804227 5.221242288141061)
        Pressure : (13.60131633354848 -11.65246227825068 5.155374711923259)
        Viscous  : (46.568982457437 -0.6260120497915863 0.0658675762178025)
    Sum of moments
        Total    : (16.85175535197013 -26.94455810717394 -208.1961455389412)
        Pressure : (16.60211190930172 -31.37749236787726 -99.02260648968476)
        Viscous  : (0.249643442668409 4.432934260703327 -109.1735390492564)


forceCoeffs forceCoeffs execute:
    Coefficients
        Cd       : 0.04813623903278839	(pressure: 0.01088105306683879	viscous: 0.0372551859659496)
        Cs       : -0.00417699383051285	(pressure: -0.004124299769538608	viscous: -5.2694060974242e-05)
        Cl       : -0.009822779462433814	(pressure: -0.009321969822600544	viscous: -0.0005008096398332691)
        CmRoll       : 0.01348140428157611	(pressure: 0.01328168952744138	viscous: 0.0001997147541347272)
        CmPitch       : 0.1665569164311529	(pressure: 0.07921808519174782	viscous: 0.08733883123940513)
        CmYaw       : -0.02155564648573915	(pressure: -0.02510199389430181	viscous: 0.003546347408562662)
        Cd(f)    : 0.0375495237979703
        Cd(r)    : 0.01058671523481809
        Cs(f)    : -0.02364414340099558
        Cs(r)    : 0.01946714957048273
        Cl(f)    : 0.161645526699936
        Cl(r)    : -0.1714683061623699
Courant Number mean: 0.02469024843401514 max: 1.005111397810651
deltaT = 0.004347826086956523
Time = 0.0347826

PIMPLE: iteration 1
GAMG:  Solving for p, Initial residual = 0.07099807356551532, Final residual = 7.753397267378046e-09, No Iterations 14
time step continuity errors : sum local = 1.089258127247697e-14, global = -4.157369247126323e-15, cumulative = -2.206410458125246e-14
ExecutionTime = 1.58 s  ClockTime = 2 s

forces forces write:
    Sum of forces
        Total    : (59.88556935676346 -12.05332542116817 5.013160213924593)
        Pressure : (13.76943161153563 -11.48910625824589 4.93726480737532)
        Viscous  : (46.11613774522783 -0.5642191629222804 0.07589540654927279)
    Sum of moments
        Total    : (14.91032293306048 -22.27622276568973 -205.155028662463)
        Pressure : (14.62302019932569 -26.57493946856522 -97.30215080277658)
        Viscous  : (0.2873027337347924 4.298716702875491 -107.8528778596864)


forceCoeffs forceCoeffs execute:
    Coefficients
        Cd       : 0.04790845548541077	(pressure: 0.01101554528922851	viscous: 0.03689291019618227)
        Cs       : -0.004010528171139675	(pressure: -0.003949811845900256	viscous: -6.071632523941824e-05)
        Cl       : -0.009642660336934533	(pressure: -0.00919128500659671	viscous: -0.0004513753303378243)
        CmRoll       : 0.01192825834644838	(pressure: 0.01169841615946055	viscous: 0.0002298421869878339)
        CmPitch       : 0.1641240229299704	(pressure: 0.07784172064222127	viscous: 0.08628230228774914)
        CmYaw       : -0.01782097821255179	(pressure: -0.02125995157485218	viscous: 0.003438973362300393)
        Cd(f)    : 0.03588248608915377
        Cd(r)    : 0.012025969396257
        Cs(f)    : -0.01982624229812163
        Cs(r)    : 0.01581571412698195
        Cl(f)    : 0.1593026927615032
        Cl(r)    : -0.1689453530984377
Courant Number mean: 0.02469013311809786 max: 1.003995425796983
deltaT = 0.004347826086956523
Time = 0.0391304

PIMPLE: iteration 1
GAMG:  Solving for p, Initial residual = 0.06805507861152113, Final residual = 5.283113288427707e-09, No Iterations 14
time step continuity errors : sum local = 7.421486291288988e-15, global = -2.993938460713317e-15, cumulative = -2.505804304196577e-14
ExecutionTime = 1.79 s  ClockTime = 2 s

forces forces write:
    Sum of forces
        Total    : (59.70578460199712 -11.68687275572073 5.368858354654582)
        Pressure : (14.00206231587061 -11.18148718980112 5.288358144700225)
        Viscous  : (45.70372228612651 -0.5053855659196074 0.08050020995435733)
    Sum of moments
        Total    : (16.11175868156929 -26.68913360859854 -202.8651244926409)
        Pressure : (15.80387515480824 -30.88710072412166 -96.20173145680629)
        Viscous  : (0.3078835267610512 4.197967115523121 -106.6633930358346)


forceCoeffs forceCoeffs execute:
    Coefficients
        Cd       : 0.04776462768159771	(pressure: 0.01120164985269649	viscous: 0.03656297782890122)
        Cs       : -0.004295086683723666	(pressure: -0.00423068651576018	viscous: -6.440016796348587e-05)
        Cl       : -0.009349498204576584	(pressure: -0.008945189751840898	viscous: -0.0004043084527356859)
        CmRoll       : 0.01288940694525543	(pressure: 0.01264310012384659	viscous: 0.000246306821408841)
        CmPitch       : 0.1622920995941127	(pressure: 0.07696138516544503	viscous: 0.08533071442866766)
        CmYaw       : -0.02135130688687883	(pressure: -0.02470968057929733	viscous: 0.003358373692418497)
        Cd(f)    : 0.03677172078605428
        Cd(r)    : 0.01099290689554342
        Cs(f)    : -0.02349885022874067
        Cs(r)    : 0.019203763545017
        Cl(f)    : 0.1576173504918244
        Cl(r)    : -0.166966848696401
Courant Number mean: 0.02469002116748116 max: 1.002985572778725
deltaT = 0.004347826086956522
Time = 0.0434783

PIMPLE: iteration 1
GAMG:  Solving for p, Initial residual = 0.07071553794910482, Final residual = 7.924348520523582e-09, No Iterations 14
time step continuity errors : sum local = 1.12472677100517e-14, global = -4.281040292552928e-15, cumulative = -2.93390833345187e-14
ExecutionTime = 1.94 s  ClockTime = 3 s

forces forces write:
    Sum of forces
        Total    : (59.37058789063389 -11.2436659082289 5.636953569684186)
        Pressure : (14.04648561969452 -10.79222784355376 5.5605061640923)
        Viscous  : (45.32410227093937 -0.4514380646751402 0.07644740559188584)
    Sum of moments
        Total    : (18.71367388935316 -33.08767763176636 -200.0003588387084)
        Pressure : (18.39875706240743 -37.20220006967093 -94.44188892492181)
        Viscous  : (0.314916826945721 4.11452243790457 -105.5584699137866)


forceCoeffs forceCoeffs execute:
    Coefficients
        Cd       : 0.04749647031250712	(pressure: 0.01123718849575562	viscous: 0.0362592818167515)
        Cs       : -0.00450956285574735	(pressure: -0.004448404931273841	viscous: -6.115792447350867e-05)
        Cl       : -0.008994932726583122	(pressure: -0.008633782274843011	viscous: -0.0003611504517401122)
        CmRoll       : 0.01497093911148253	(pressure: 0.01471900564992595	viscous: 0.0002519334615565768)
        CmPitch       : 0.1600002870709668	(pressure: 0.07555351113993745	viscous: 0.08444677593102928)
        CmYaw       : -0.02647014210541309	(pressure: -0.02976176005573675	viscous: 0.003291617950323656)
        Cd(f)    : 0.03871917426773609
        Cd(r)    : 0.008777296044771033
        Cs(f)    : -0.02872492353328676
        Cs(r)    : 0.02421536067753942
        Cl(f)    : 0.1555028207076752
        Cl(r)    : -0.1644977534342583
Courant Number mean: 0.0246899105782365 max: 1.001336314640048
deltaT = 0.004347826086956522
Time = 0.0478261

PIMPLE: iteration 1
GAMG:  Solving for p, Initial residual = 0.0728241309665599, Final residual = 7.412320225902464e-09, No Iterations 14
time step continuity errors : sum local = 1.057764538809964e-14, global = -4.365087246090069e-15, cumulative = -3.370417058060877e-14
ExecutionTime = 2.08 s  ClockTime = 3 s

forces forces write:
    Sum of forces
        Total    : (58.98806672947312 -11.13413305877145 5.967654363885918)
        Pressure : (14.01077326982763 -10.73654536707529 5.89033551842564)
        Viscous  : (44.97729345964549 -0.3975876916961542 0.07731884546027847)
    Sum of moments
        Total    : (18.27585075097051 -32.83017344466266 -197.8642812574614)
        Pressure : (17.94029480133499 -36.86390389058325 -93.31011133630501)
        Viscous  : (0.3355559496355193 4.033730445920592 -104.5541699211564)


forceCoeffs forceCoeffs execute:
    Coefficients
        Cd       : 0.0471904533835785	(pressure: 0.0112086186158621	viscous: 0.03598183476771639)
        Cs       : -0.004774123491108735	(pressure: -0.004712268414740512	viscous: -6.185507636822278e-05)
        Cl       : -0.008907306447017158	(pressure: -0.008589236293660235	viscous: -0.0003180701533569233)
        CmRoll       : 0.01462068060077641	(pressure: 0.01435223584106799	viscous: 0.0002684447597084155)
        CmPitch       : 0.1582914250059691	(pressure: 0.07464808906904401	viscous: 0.08364333593692512)
        CmYaw       : -0.02626413875573012	(pressure: -0.0294911231124666	viscous: 0.003226984356736474)
        Cd(f)    : 0.03821590729256566
        Cd(r)    : 0.008974546091012838
        Cs(f)    : -0.02865120050128449
        Cs(r)    : 0.02387707701017576
        Cl(f)    : 0.1538377717824606
        Cl(r)    : -0.1627450782294777
Courant Number mean: 0.02468980248393365 max: 0.9994453174437329
deltaT = 0.004347826086956522
Time = 0.0521739

PIMPLE: iteration 1
GAMG:  Solving for p, Initial residual = 0.07247356774800058, Final residual = 4.845008048520304e-09, No Iterations 15
time step continuity errors : sum local = 6.993451952282939e-15, global = -2.667911934474569e-15, cumulative = -3.637208251508334e-14
ExecutionTime = 2.24 s  ClockTime = 3 s

forces forces write:
    Sum of forces
        Total    : (58.55396577930982 -10.72121057236265 10.25840690162791)
        Pressure : (13.8968731359612 -10.37349672454701 10.18547189203224)
        Viscous  : (44.65709264334862 -0.3477138478156344 0.07293500959566422)
    Sum of moments
        Total    : (26.7223776301904 -50.71919821663986 -194.8954138585913)
        Pressure : (26.36042163103479 -54.63215381196974 -91.25833076788848)
        Viscous  : (0.3619559991556111 3.912955595329873 -103.6370830907028)


forceCoeffs forceCoeffs execute:
    Coefficients
        Cd       : 0.04684317262344785	(pressure: 0.01111749850876896	viscous: 0.0357256741146789)
        Cs       : -0.008206725521302326	(pressure: -0.008148377513625795	viscous: -5.834800767653138e-05)
        Cl       : -0.008576968457890119	(pressure: -0.008298797379637611	viscous: -0.0002781710782525075)
        CmRoll       : 0.02137790210415232	(pressure: 0.02108833730482783	viscous: 0.0002895647993244889)
        CmPitch       : 0.1559163310868731	(pressure: 0.07300666461431078	viscous: 0.08290966647256227)
        CmYaw       : -0.04057535857331189	(pressure: -0.04370572304957579	viscous: 0.003130364476263899)
        Cd(f)    : 0.04479948841587625
        Cd(r)    : 0.002043684207571606
        Cs(f)    : -0.04467872133396306
        Cs(r)    : 0.03647199581266072
        Cl(f)    : 0.151627846857928
        Cl(r)    : -0.1602048153158181
Courant Number mean: 0.02468969383326307 max: 0.9974340332441637
deltaT = 0.004347826086956521
Time = 0.0565217

PIMPLE: iteration 1
GAMG:  Solving for p, Initial residual = 0.07278450063923944, Final residual = 9.102753665292692e-09, No Iterations 14
time step continuity errors : sum local = 1.317234785804555e-14, global = 5.014350895199754e-15, cumulative = -3.135773161988358e-14
ExecutionTime = 2.39 s  ClockTime = 3 s

forces forces write:
    Sum of forces
        Total    : (57.60180829691505 -10.09541216924812 10.17514094055587)
        Pressure : (13.24244125216911 -9.790180737305338 10.12111236986281)
        Viscous  : (44.35936704474594 -0.3052314319427836 0.0540285706930608)
    Sum of moments
        Total    : (27.99598200418074 -53.75998126956343 -187.2363277950323)
        Pressure : (27.66087975997369 -57.67949555052574 -84.40798804795006)
        Viscous  : (0.3351022442070459 3.919514280962313 -102.8283397470823)


forceCoeffs forceCoeffs execute:
    Coefficients
        Cd       : 0.04608144663753205	(pressure: 0.01059395300173529	viscous: 0.03548749363579676)
        Cs       : -0.008140112752444695	(pressure: -0.008096889895890247	viscous: -4.322285655444864e-05)
        Cl       : -0.008076329735398499	(pressure: -0.007832144589844272	viscous: -0.0002441851455542269)
        CmRoll       : 0.02239678560334459	(pressure: 0.02212870380797895	viscous: 0.0002680817953656368)
        CmPitch       : 0.1497890622360258	(pressure: 0.06752639043836005	viscous: 0.0822626717976658)
        CmYaw       : -0.04300798501565074	(pressure: -0.04614359644042059	viscous: 0.003135611424769851)
        Cd(f)    : 0.04543750892211061
        Cd(r)    : 0.0006439377154214346
        Cs(f)    : -0.04707804139187309
        Cs(r)    : 0.0389379286394284
        Cl(f)    : 0.1457508973683266
        Cl(r)    : -0.1538272271037251
Courant Number mean: 0.02468958855915268 max: 0.9954998401691222
deltaT = 0.004347826086956522
Time = 0.0608696

PIMPLE: iteration 1
GAMG:  Solving for p, Initial residual = 0.06997264615219521, Final residual = 9.783374579525296e-09, No Iterations 14
time step continuity errors : sum local = 1.438798766219725e-14, global = 5.541633847573026e-15, cumulative = -2.581609777231056e-14
ExecutionTime = 2.55 s  ClockTime = 3 s

forces forces write:
    Sum of forces
        Total    : (57.32978348364561 -9.392787344559782 10.14643455151391)
        Pressure : (13.25250829680311 -9.125445247220771 10.11044694135571)
        Viscous  : (44.0772751868425 -0.2673420973390101 0.0359876101581993)
    Sum of moments
        Total    : (24.15688656286197 -44.11093639257565 -182.6001037191621)
        Pressure : (23.85168519388961 -48.05902211933741 -80.51029927326218)
        Viscous  : (0.3052013689723626 3.94808572676176 -102.0898044459)


forceCoeffs forceCoeffs execute:
    Coefficients
        Cd       : 0.04586382678691649	(pressure: 0.01060200663744248	viscous: 0.035261820149474)
        Cs       : -0.008117147641211124	(pressure: -0.008088357553084565	viscous: -2.879008812655945e-05)
        Cl       : -0.007514229875647825	(pressure: -0.007300356197776617	viscous: -0.0002138736778712081)
        CmRoll       : 0.01932550925028958	(pressure: 0.01908134815511169	viscous: 0.00024416109517789)
        CmPitch       : 0.1460800829753297	(pressure: 0.06440823941860975	viscous: 0.08167184355671998)
        CmYaw       : -0.03528874911406052	(pressure: -0.03844721769546992	viscous: 0.003158468581409408)
        Cd(f)    : 0.04225742264374782
        Cd(r)    : 0.003606404143168665
        Cs(f)    : -0.03934732293466608
        Cs(r)    : 0.03123017529345496
        Cl(f)    : 0.1423229680375058
        Cl(r)    : -0.1498371979131536
Courant Number mean: 0.02468948447086571 max: 0.993349808309319
deltaT = 0.004347826086956521
Time = 0.0652174

PIMPLE: iteration 1
GAMG:  Solving for p, Initial residual = 0.06916647950717177, Final residual = 7.87050086394434e-09, No Iterations 14
time step continuity errors : sum local = 1.169434934694538e-14, global = -4.620663222891906e-15, cumulative = -3.043676099520246e-14
ExecutionTime = 2.71 s  ClockTime = 3 s

forces forces write:
    Sum of forces
        Total    : (56.52517215137008 -8.928299897847067 7.299370628725777)
        Pressure : (12.70718340363626 -8.691183811317838 7.265702498596332)
        Viscous  : (43.81798874773382 -0.2371160865292282 0.03366813012944496)
    Sum of moments
        Total    : (17.33070291122675 -30.86219817700847 -179.0182883441554)
        Pressure : (17.03083632459781 -34.81097810727289 -77.59574755226294)
        Viscous  : (0.2998665866289381 3.948779930264429 -101.4225407918924)


forceCoeffs forceCoeffs execute:
    Coefficients
        Cd       : 0.04522013772109607	(pressure: 0.01016574672290901	viscous: 0.03505439099818706)
        Cs       : -0.005839496502980622	(pressure: -0.005812561998877066	viscous: -2.693450410355597e-05)
        Cl       : -0.007142639918277654	(pressure: -0.006952947049054271	viscous: -0.0001896928692233826)
        CmRoll       : 0.0138645623289814	(pressure: 0.01362466905967825	viscous: 0.0002398932693031504)
        CmPitch       : 0.1432146306753243	(pressure: 0.06207659804181035	viscous: 0.08113803263351395)
        CmYaw       : -0.02468975854160678	(pressure: -0.02784878248581832	viscous: 0.003159023944211543)
        Cd(f)    : 0.03647463118952943
        Cd(r)    : 0.008745506531566629
        Cs(f)    : -0.02760950679309709
        Cs(r)    : 0.02177001029011646
        Cl(f)    : 0.1396433107161855
        Cl(r)    : -0.1467859506344631
Courant Number mean: 0.02468938302689516 max: 0.9910596987255418
deltaT = 0.004347826086956521
Time = 0.0695652

PIMPLE: iteration 1
GAMG:  Solving for p, Initial residual = 0.06509339956418407, Final residual = 6.267119328535276e-09, No Iterations 14
time step continuity errors : sum local = 9.350890155261898e-15, global = -3.56029258431401e-15, cumulative = -3.399705357951647e-14
ExecutionTime = 2.86 s  ClockTime = 3 s

forces forces write:
    Sum of forces
        Total    : (55.77620996229264 -8.239374763261763 6.718623304592379)
        Pressure : (12.20448888998786 -8.032534948394281 6.679000557192133)
        Viscous  : (43.57172107230478 -0.2068398148674832 0.03962274740024611)
    Sum of moments
        Total    : (16.78555958686565 -32.88205492126936 -172.8973991121242)
        Pressure : (16.46522975563833 -36.78009832740095 -72.08688021442664)
        Viscous  : (0.3203298312273192 3.898043406131592 -100.8105188976976)


forceCoeffs forceCoeffs execute:
    Coefficients
        Cd       : 0.04462096796983411	(pressure: 0.009763591111990289	viscous: 0.03485737685784383)
        Cs       : -0.005374898643673904	(pressure: -0.005343200445753707	viscous: -3.169819792019689e-05)
        Cl       : -0.006591499810609411	(pressure: -0.006426027958715425	viscous: -0.0001654718518939865)
        CmRoll       : 0.01342844766949252	(pressure: 0.01317218380451067	viscous: 0.0002562638649818554)
        CmPitch       : 0.1383179192896994	(pressure: 0.05766950417154132	viscous: 0.08064841511815805)
        CmYaw       : -0.02630564393701549	(pressure: -0.02942407866192076	viscous: 0.003118434724905274)
        Cd(f)    : 0.03573893165440958
        Cd(r)    : 0.008882036315424535
        Cs(f)    : -0.02899309325885244
        Cs(r)    : 0.02361819461517854
        Cl(f)    : 0.1350221693843947
        Cl(r)    : -0.1416136691950041
Courant Number mean: 0.02468928426447087 max: 0.9889269115627763
deltaT = 0.00434782608695652
Time = 0.073913

PIMPLE: iteration 1
GAMG:  Solving for p, Initial residual = 0.06774013441098775, Final residual = 6.73703193461294e-09, No Iterations 14
time step continuity errors : sum local = 1.010398142834356e-14, global = -3.850116798248995e-15, cumulative = -3.784717037776547e-14
ExecutionTime = 3.02 s  ClockTime = 4 s

forces forces write:
    Sum of forces
        Total    : (55.08527038789777 -7.862057633539089 5.807522701703991)
        Pressure : (11.74995726173844 -7.678552038064012 5.757880676187955)
        Viscous  : (43.33531312615933 -0.1835055954750769 0.04964202551603573)
    Sum of moments
        Total    : (16.72101918281233 -31.93503741696179 -169.0135779053697)
        Pressure : (16.36801608820737 -35.75534258548574 -68.789561160227)
        Viscous  : (0.3530030946049657 3.820305168523945 -100.2240167451427)


forceCoeffs forceCoeffs execute:
    Coefficients
        Cd       : 0.04406821631031822	(pressure: 0.009399965809390756	viscous: 0.03466825050092746)
        Cs       : -0.004646018161363193	(pressure: -0.004606304540950364	viscous: -3.971362041282858e-05)
        Cl       : -0.006289646106831272	(pressure: -0.00614284163045121	viscous: -0.0001468044763800615)
        CmRoll       : 0.01337681534624987	(pressure: 0.0130944128705659	viscous: 0.0002824024756839726)
        CmPitch       : 0.1352108623242957	(pressure: 0.0550316489281816	viscous: 0.08017921339611414)
        CmYaw       : -0.02554802993356943	(pressure: -0.02860427406838859	viscous: 0.003056244134819156)
        Cd(f)    : 0.03541092350140898
        Cd(r)    : 0.008657292808909242
        Cs(f)    : -0.02787103901425103
        Cs(r)    : 0.02322502085288784
        Cl(f)    : 0.1320660392708801
        Cl(r)    : -0.1383556853777114
Courant Number mean: 0.02468918669271459 max: 0.9871701958501325
deltaT = 0.00434782608695652
Time = 0.0782609

PIMPLE: iteration 1
GAMG:  Solving for p, Initial residual = 0.0698243357777098, Final residual = 6.871234561879861e-09, No Iterations 14
time step continuity errors : sum local = 1.0404178187546e-14, global = 3.960833847826794e-15, cumulative = -3.388633652993867e-14
ExecutionTime = 3.16 s  ClockTime = 4 s

forces forces write:
    Sum of forces
        Total    : (54.41605303831467 -7.615809436933736 6.338285841574406)
        Pressure : (11.31487813133244 -7.455801977627157 6.280477715506508)
        Viscous  : (43.10117490698224 -0.1600074593065789 0.05780812606789792)
    Sum of moments
        Total    : (17.4224789618421 -33.68078632430253 -167.0399104264561)
        Pressure : (17.03605508414958 -37.41953276537254 -67.41951745256938)
        Viscous  : (0.3864238776925238 3.738746441070004 -99.62039297388677)


forceCoeffs forceCoeffs execute:
    Coefficients
        Cd       : 0.04353284243065174	(pressure: 0.009051902505065951	viscous: 0.03448093992558579)
        Cs       : -0.005070628673259525	(pressure: -0.005024382172405206	viscous: -4.624650085431834e-05)
        Cl       : -0.006092647549546989	(pressure: -0.005964641582101726	viscous: -0.0001280059674452632)
        CmRoll       : 0.01393798316947368	(pressure: 0.01362884406731966	viscous: 0.0003091391021540191)
        CmPitch       : 0.1336319283411649	(pressure: 0.05393561396205551	viscous: 0.07969631437910941)
        CmYaw       : -0.02694462905944203	(pressure: -0.02993562621229803	viscous: 0.002990997152856003)
        Cd(f)    : 0.03570440438479955
        Cd(r)    : 0.007828438045852187
        Cs(f)    : -0.02947994339607179
        Cs(r)    : 0.02440931472281226
        Cl(f)    : 0.1305856045663914
        Cl(r)    : -0.1366782521159384
Courant Number mean: 0.024689090330763 max: 0.9856006882525126
deltaT = 0.004347826086956519
Time = 0.0826087

PIMPLE: iteration 1
GAMG:  Solving for p, Initial residual = 0.07396630933559041, Final residual = 6.748191828503383e-09, No Iterations 14
time step continuity errors : sum local = 1.034133099031111e-14, global = 3.965070865738716e-15, cumulative = -2.992126566419996e-14
ExecutionTime = 3.32 s  ClockTime = 4 s

forces forces write:
    Sum of forces
        Total    : (54.06887196177703 -7.48140362638606 6.050941821211392)
        Pressure : (11.20184191793596 -7.335121745965245 5.98657460088701)
        Viscous  : (42.86703004384108 -0.1462818804208141 0.0643672203243822)
    Sum of moments
        Total    : (16.65566133270562 -30.53410320140845 -162.1362741867753)
        Pressure : (16.25917612404499 -34.24504939012349 -63.11240852177166)
        Viscous  : (0.3964852086606199 3.710946188715041 -99.02386566500361)


forceCoeffs forceCoeffs execute:
    Coefficients
        Cd       : 0.04325509756942163	(pressure: 0.008961473534348768	viscous: 0.03429362403507286)
        Cs       : -0.004840753456969114	(pressure: -0.004789259680709608	viscous: -5.149377625950577e-05)
        Cl       : -0.005985122901108848	(pressure: -0.005868097396772197	viscous: -0.0001170255043366513)
        CmRoll       : 0.01332452906616449	(pressure: 0.013007340899236	viscous: 0.000317188166928496)
        CmPitch       : 0.1297090193494202	(pressure: 0.05048992681741733	viscous: 0.07921909253200289)
        CmYaw       : -0.02442728256112676	(pressure: -0.02739603951209879	viscous: 0.002968756950972033)
        Cd(f)    : 0.03495207785087531
        Cd(r)    : 0.008303019718546321
        Cs(f)    : -0.02684765928961132
        Cs(r)    : 0.02200690583264221
        Cl(f)    : 0.1267164578988658
        Cl(r)    : -0.1327015807999747
Courant Number mean: 0.02468899123036537 max: 0.9843088546221259
deltaT = 0.004347826086956517
Time = 0.0869565

PIMPLE: iteration 1
GAMG:  Solving for p, Initial residual = 0.07459322819790677, Final residual = 8.412214350598191e-09, No Iterations 14
time step continuity errors : sum local = 1.301474825981411e-14, global = 4.942016045121175e-15, cumulative = -2.497924961907878e-14
ExecutionTime = 3.47 s  ClockTime = 4 s

forces forces write:
    Sum of forces
        Total    : (53.68898911503614 -7.213589812133463 4.339834134955916)
        Pressure : (11.05495687470882 -7.083447979139379 4.26947324580858)
        Viscous  : (42.63403224032731 -0.1301418329940846 0.07036088914733639)
    Sum of moments
        Total    : (12.34303147605777 -21.1977883521828 -161.2201214746726)
        Pressure : (11.93668048057351 -24.89615878333426 -62.79757361205698)
        Viscous  : (0.4063509954842628 3.698370431151459 -98.42254786261559)


forceCoeffs forceCoeffs execute:
    Coefficients
        Cd       : 0.04295119129202891	(pressure: 0.008843965499767056	viscous: 0.03410722579226185)
        Cs       : -0.003471867307964733	(pressure: -0.003415578596646864	viscous: -5.628871131786912e-05)
        Cl       : -0.005770871849706771	(pressure: -0.005666758383311503	viscous: -0.0001041134663952677)
        CmRoll       : 0.009874425180846219	(pressure: 0.009549344384458808	viscous: 0.0003250807963874102)
        CmPitch       : 0.1289760971797381	(pressure: 0.05023805888964559	viscous: 0.07873803829009247)
        CmYaw       : -0.01695823068174624	(pressure: -0.01991692702666741	viscous: 0.002958696344921167)
        Cd(f)    : 0.03135002082686067
        Cd(r)    : 0.01160117046516823
        Cs(f)    : -0.01869416433572861
        Cs(r)    : 0.01522229702776388
        Cl(f)    : 0.1260906612548847
        Cl(r)    : -0.1318615331045914
Courant Number mean: 0.02468889353077241 max: 0.9831330273323734
deltaT = 0.004347826086956515
Time = 0.0913043

PIMPLE: iteration 1
GAMG:  Solving for p, Initial residual = 0.06699838203651116, Final residual = 6.985818014447728e-09, No Iterations 14
time step continuity errors : sum local = 1.09479314530698e-14, global = -4.157129757983558e-15, cumulative = -2.913637937706234e-14
ExecutionTime = 3.65 s  ClockTime = 4 s

forces forces write:
    Sum of forces
        Total    : (53.00044173944008 -6.833463503654012 4.110110888195952)
        Pressure : (10.59093826240781 -6.719827496816657 4.038652826671861)
        Viscous  : (42.40950347703226 -0.1136360068373553 0.07145806152409138)
    Sum of moments
        Total    : (12.11580214946939 -22.94591323193376 -157.6979882557997)
        Pressure : (11.71387006892852 -26.63576916720658 -59.8754703865578)
        Viscous  : (0.4019320805408673 3.689855935272819 -97.82251786924185)


forceCoeffs forceCoeffs execute:
    Coefficients
        Cd       : 0.04240035339155206	(pressure: 0.008472750609926251	viscous: 0.03392760278162581)
        Cs       : -0.003288088710556762	(pressure: -0.003230922261337489	viscous: -5.716644921927311e-05)
        Cl       : -0.00546677080292321	(pressure: -0.005375861997453326	viscous: -9.090880546988426e-05)
        CmRoll       : 0.009692641719575514	(pressure: 0.00937109605514282	viscous: 0.0003215456644326938)
        CmPitch       : 0.1261583906046397	(pressure: 0.04790037630924624	viscous: 0.07825801429539349)
        CmYaw       : -0.018356730585547	(pressure: -0.02130861533376526	viscous: 0.002951884748218255)
        Cd(f)    : 0.03089281841535154
        Cd(r)    : 0.01150753497620051
        Cs(f)    : -0.02000077494082539
        Cs(r)    : 0.01671268623026862
        Cl(f)    : 0.1234250052031781
        Cl(r)    : -0.1288917760061014
Courant Number mean: 0.02468879558780285 max: 0.982429894601886
deltaT = 0.004347826086956517
Time = 0.0956522

PIMPLE: iteration 1
GAMG:  Solving for p, Initial residual = 0.06548875384059563, Final residual = 6.017896973704149e-09, No Iterations 14
time step continuity errors : sum local = 9.424051736611256e-15, global = 3.591945819769191e-15, cumulative = -2.554443355729315e-14
ExecutionTime = 3.81 s  ClockTime = 4 s

forces forces write:
    Sum of forces
        Total    : (52.37013276796694 -6.437238240037654 3.785415719545334)
        Pressure : (10.17850446677875 -6.333792656020057 3.712425739041992)
        Viscous  : (42.19162830118819 -0.1034455840175968 0.07298998050334127)
    Sum of moments
        Total    : (11.83097999330501 -22.89681519671935 -154.0924233609833)
        Pressure : (11.42972852351073 -26.58312174162228 -56.81774010480811)
        Viscous  : (0.4012514697942729 3.686306544902928 -97.27468325617518)


forceCoeffs forceCoeffs execute:
    Coefficients
        Cd       : 0.04189610621437356	(pressure: 0.008142803573423004	viscous: 0.03375330264095056)
        Cs       : -0.003028332575636267	(pressure: -0.002969940591233594	viscous: -5.839198440267301e-05)
        Cl       : -0.005149790592030122	(pressure: -0.005067034124816045	viscous: -8.275646721407744e-05)
        CmRoll       : 0.009464783994644005	(pressure: 0.009143782818808587	viscous: 0.0003210011758354183)
        CmPitch       : 0.1232739386887866	(pressure: 0.04545419208384649	viscous: 0.07781974660494015)
        CmYaw       : -0.01831745215737548	(pressure: -0.02126649739329782	viscous: 0.002949045235922343)
        Cd(f)    : 0.03041283710183078
        Cd(r)    : 0.01148326911254278
        Cs(f)    : -0.01983161844519362
        Cs(r)    : 0.01680328586955735
        Cl(f)    : 0.1206990433927716
        Cl(r)    : -0.1258488339848017
Courant Number mean: 0.02468870012071269 max: 0.9819682765186165
deltaT = 0.004347826086956524
Time = 0.1

PIMPLE: iteration 1
GAMG:  Solving for p, Initial residual = 0.06721905188261865, Final residual = 8.959601336413537e-09, No Iterations 14
time step continuity errors : sum local = 1.416902247265884e-14, global = -5.379998719731102e-15, cumulative = -3.092443227702425e-14
ExecutionTime = 4.05 s  ClockTime = 5 s

forces forces write:
    Sum of forces
        Total    : (51.70690002715264 -6.40883889002048 3.695323996297657)
        Pressure : (9.722208194856215 -6.32256056193124 3.619932362026567)
        Viscous  : (41.98469183229643 -0.08627832808923985 0.0753916342710903)
    Sum of moments
        Total    : (11.75312241556264 -22.51898732251681 -152.9738832167791)
        Pressure : (11.34310559147291 -26.18002972068756 -56.23082482142185)
        Viscous  : (0.4100168240897373 3.661042398170752 -96.74305839535731)


forceCoeffs forceCoeffs execute:
    Coefficients
        Cd       : 0.04136552002172211	(pressure: 0.007777766555884972	viscous: 0.03358775346583714)
        Cs       : -0.002956259197038126	(pressure: -0.002895945889621253	viscous: -6.031330741687224e-05)
        Cl       : -0.005127071112016384	(pressure: -0.005058048449544992	viscous: -6.902266247139189e-05)
        CmRoll       : 0.009402497932450115	(pressure: 0.009074484473178325	viscous: 0.0003280134592717899)
        CmPitch       : 0.1223791065734233	(pressure: 0.04498465985713748	viscous: 0.07739444671628586)
        CmYaw       : -0.01801518985801345	(pressure: -0.02094402377655005	viscous: 0.002928833918536602)
        Cd(f)    : 0.03008525794331117
        Cd(r)    : 0.01128026207841094
        Cs(f)    : -0.01949331945653251
        Cs(r)    : 0.01653706025949439
        Cl(f)    : 0.1198155710174151
        Cl(r)    : -0.1249426421294315
    functionObjects::vorticity vorticity1 writing field: vorticity
surfaceFieldValue surfaceFieldValue write:
    total faces   = 1946
    total area    = 54.05631956862666

    areaAverage(peak) of p = -0.7921659744367123
    areaAverage(peak) of U = (0 0 0)
    areaAverage(peak) of vorticity = (0.2944947840253808 1.840601198343587 -0.5083786531496942)

Courant Number mean: 0.02468860541163562 max: 0.9817075908320031
deltaT = 0.004347826086956522
Time = 0.104348

PIMPLE: iteration 1
GAMG:  Solving for p, Initial residual = 0.07007089630038348, Final residual = 8.296147819416167e-09, No Iterations 14
time step continuity errors : sum local = 1.311564582318557e-14, global = 4.987915792786124e-15, cumulative = -2.593651648423813e-14
ExecutionTime = 4.32 s  ClockTime = 5 s

forces forces write:
    Sum of forces
        Total    : (51.52470451570299 -6.445194142787746 3.759601084701076)
        Pressure : (9.742893465240755 -6.371046751111784 3.675582972242496)
        Viscous  : (41.78181105046223 -0.07414739167596218 0.08401811245858051)
    Sum of moments
        Total    : (13.52271552759631 -27.40671960662612 -153.0962791763131)
        Pressure : (13.09312513155057 -31.0247249657256 -56.85205881539144)
        Viscous  : (0.4295903960457393 3.618005359099481 -96.24422036092172)


forceCoeffs forceCoeffs execute:
    Coefficients
        Cd       : 0.04121976361256239	(pressure: 0.007794314772192604	viscous: 0.03342544884036978)
        Cs       : -0.003007680867760861	(pressure: -0.002940466377793997	viscous: -6.721448996686441e-05)
        Cl       : -0.005156155314230197	(pressure: -0.005096837400889427	viscous: -5.931791334076975e-05)
        CmRoll       : 0.01081817242207704	(pressure: 0.01047450010524045	viscous: 0.0003436723168365915)
        CmPitch       : 0.1224770233410505	(pressure: 0.04548164705231315	viscous: 0.07699537628873737)
        CmYaw       : -0.0219253756853009	(pressure: -0.02481977997258048	viscous: 0.002894404287279585)
        Cd(f)    : 0.03142805422835824
        Cd(r)    : 0.00979170938420415
        Cs(f)    : -0.02342921611918133
        Cs(r)    : 0.02042153525142047
        Cl(f)    : 0.1198989456839354
        Cl(r)    : -0.1250551009981656
Courant Number mean: 0.02468851303481149 max: 0.9813849311975946
deltaT = 0.004347826086956522
Time = 0.108696

PIMPLE: iteration 1
GAMG:  Solving for p, Initial residual = 0.07048220106904265, Final residual = 7.772204010171407e-09, No Iterations 14
time step continuity errors : sum local = 1.245769638463974e-14, global = -4.733368869475023e-15, cumulative = -3.066988535371315e-14
ExecutionTime = 4.47 s  ClockTime = 5 s

forces forces write:
    Sum of forces
        Total    : (50.96128027354367 -6.250546145604578 2.063698725716236)
        Pressure : (9.379055671395355 -6.190970099356785 1.967058491375434)
        Viscous  : (41.58222460214832 -0.05957604624779277 0.09664023434080235)
    Sum of moments
        Total    : (10.99881310755661 -25.30260613758689 -151.0793107228652)
        Pressure : (10.55499951372581 -28.89426776795185 -55.36043495677153)
        Viscous  : (0.4438135938308022 3.591661630364961 -95.71887576609367)


forceCoeffs forceCoeffs execute:
    Coefficients
        Cd       : 0.04076902421883494	(pressure: 0.007503244537116284	viscous: 0.03326577968171866)
        Cs       : -0.001650958980572989	(pressure: -0.001573646793100347	viscous: -7.731218747264188e-05)
        Cl       : -0.005000436916483663	(pressure: -0.004952776079485429	viscous: -4.766083699823422e-05)
        CmRoll       : 0.008799050486045292	(pressure: 0.00844399961098065	viscous: 0.0003550508750646418)
        CmPitch       : 0.1208634485782922	(pressure: 0.04428834796541722	viscous: 0.07657510061287494)
        CmYaw       : -0.02024208491006952	(pressure: -0.02311541421436148	viscous: 0.002873329304291969)
        Cd(f)    : 0.02918356259546276
        Cd(r)    : 0.01158546162337218
        Cs(f)    : -0.02106756440035601
        Cs(r)    : 0.01941660541978302
        Cl(f)    : 0.1183632301200503
        Cl(r)    : -0.123363667036534
Courant Number mean: 0.0246884196273517 max: 0.9810748939719783
deltaT = 0.004347826086956522
Time = 0.113043

PIMPLE: iteration 1
GAMG:  Solving for p, Initial residual = 0.0751594142402973, Final residual = 7.995798920085043e-09, No Iterations 14
time step continuity errors : sum local = 1.278283653057006e-14, global = 4.856559466351762e-15, cumulative = -2.581332588736139e-14
ExecutionTime = 4.63 s  ClockTime = 6 s

forces forces write:
    Sum of forces
        Total    : (50.51589721999786 -6.064994510206947 2.195435581891404)
        Pressure : (9.127270603578884 -6.021896384252595 2.095921195903356)
        Viscous  : (41.38862661641897 -0.04309812595435268 0.09951438598804775)
    Sum of moments
        Total    : (10.99042827941351 -23.38098044376657 -148.3809273955569)
        Pressure : (10.56383259037686 -26.9824665356081 -53.20435217351047)
        Viscous  : (0.4265956890366514 3.601486091841535 -95.17657522204647)


forceCoeffs forceCoeffs execute:
    Coefficients
        Cd       : 0.04041271777599829	(pressure: 0.007301816482863107	viscous: 0.03311090129313518)
        Cs       : -0.001756348465513123	(pressure: -0.001676736956722685	viscous: -7.96115087904382e-05)
        Cl       : -0.004851995608165558	(pressure: -0.004817517107402076	viscous: -3.447850076348214e-05)
        CmRoll       : 0.00879234262353081	(pressure: 0.00845106607230149	viscous: 0.0003412765512293211)
        CmPitch       : 0.1187047419164456	(pressure: 0.04256348173880838	viscous: 0.07614126017763717)
        CmYaw       : -0.01870478435501325	(pressure: -0.02158597322848648	viscous: 0.002881188873473228)
        Cd(f)    : 0.02899870151152995
        Cd(r)    : 0.01141401626446833
        Cs(f)    : -0.01958295858776982
        Cs(r)    : 0.01782661012225669
        Cl(f)    : 0.1162787441123628
        Cl(r)    : -0.1211307397205283
Courant Number mean: 0.02468832779090861 max: 0.9805061909753269
deltaT = 0.004347826086956522
Time = 0.117391

PIMPLE: iteration 1
GAMG:  Solving for p, Initial residual = 0.07069603733664502, Final residual = 8.343447245810228e-09, No Iterations 14
time step continuity errors : sum local = 1.353057126260777e-14, global = -5.153115726145893e-15, cumulative = -3.096644161350728e-14
ExecutionTime = 4.8 s  ClockTime = 6 s

forces forces write:
    Sum of forces
        Total    : (50.24039274668518 -6.31001719137369 3.75525305634227)
        Pressure : (9.038542252744755 -6.287714283801392 3.66285296193221)
        Viscous  : (41.20185049394043 -0.02230290757229811 0.09240009441006002)
    Sum of moments
        Total    : (12.28055931776053 -25.06979668481919 -148.5056206124299)
        Pressure : (11.88996844771252 -28.68027995243305 -53.88718526120119)
        Viscous  : (0.390590870048014 3.610483267613867 -94.61843535122865)


forceCoeffs forceCoeffs execute:
    Coefficients
        Cd       : 0.04019231419734814	(pressure: 0.007230833802195804	viscous: 0.03296148039515234)
        Cs       : -0.003004202445073816	(pressure: -0.002930282369545768	viscous: -7.392007552804802e-05)
        Cl       : -0.005048013753098952	(pressure: -0.005030171427041113	viscous: -1.784232605783849e-05)
        CmRoll       : 0.009824447454208424	(pressure: 0.009511974758170012	viscous: 0.0003124726960384112)
        CmPitch       : 0.1188044964899439	(pressure: 0.04310974820896096	viscous: 0.07569474828098292)
        CmYaw       : -0.02005583734785535	(pressure: -0.02294422396194645	viscous: 0.002888386614091094)
        Cd(f)    : 0.0299206045528825
        Cd(r)    : 0.01027170964446565
        Cs(f)    : -0.02155793857039226
        Cs(r)    : 0.01855373612531844
        Cl(f)    : 0.1162804896133944
        Cl(r)    : -0.1213285033664934
Courant Number mean: 0.02468823346700448 max: 0.9798756697926562
deltaT = 0.004347826086956522
Time = 0.121739

PIMPLE: iteration 1
GAMG:  Solving for p, Initial residual = 0.07312252958713511, Final residual = 7.60177347448953e-09, No Iterations 14
time step continuity errors : sum local = 1.238204346255917e-14, global = -4.708873011045009e-15, cumulative = -3.567531462455229e-14
ExecutionTime = 4.94 s  ClockTime = 6 s

forces forces write:
    Sum of forces
        Total    : (50.01512104008219 -5.815543608493924 4.419886714325981)
        Pressure : (8.997106329988448 -5.812444273293718 4.338842913006498)
        Viscous  : (41.01801471009374 -0.003099335200206194 0.08104380131948355)
    Sum of moments
        Total    : (12.01061905617926 -22.23234200778975 -145.0589492581583)
        Pressure : (11.67071221903007 -25.85130703985693 -50.9874088460595)
        Viscous  : (0.3399068371491895 3.618965032067181 -94.07154041209881)


forceCoeffs forceCoeffs execute:
    Coefficients
        Cd       : 0.04001209683206575	(pressure: 0.007197685063990759	viscous: 0.03281441176807499)
        Cs       : -0.003535909371460785	(pressure: -0.003471074330405198	viscous: -6.483504105558684e-05)
        Cl       : -0.004652434886795139	(pressure: -0.004649955418634975	viscous: -2.479468160164955e-06)
        CmRoll       : 0.009608495244943409	(pressure: 0.009336569775224058	viscous: 0.0002719254697193516)
        CmPitch       : 0.1160471594065267	(pressure: 0.0407899270768476	viscous: 0.07525723232967906)
        CmYaw       : -0.0177858736062318	(pressure: -0.02068104563188555	viscous: 0.002895172025653745)
        Cd(f)    : 0.02961454366097629
        Cd(r)    : 0.01039755317108947
        Cs(f)    : -0.01955382829196219
        Cs(r)    : 0.01601791892050141
        Cl(f)    : 0.1137209419631291
        Cl(r)    : -0.1183733768499242
Courant Number mean: 0.02468813669626038 max: 0.9793369384067147
deltaT = 0.004347826086956521
Time = 0.126087

PIMPLE: iteration 1
GAMG:  Solving for p, Initial residual = 0.07258376841711485, Final residual = 6.508293270062713e-09, No Iterations 14
time step continuity errors : sum local = 1.057401952314118e-14, global = 4.021850052625772e-15, cumulative = -3.165346457192652e-14
ExecutionTime = 5.1 s  ClockTime = 6 s

forces forces write:
    Sum of forces
        Total    : (49.85928545377435 -5.748105353481537 4.295094680756379)
        Pressure : (9.022896745013076 -5.760747407504748 4.237235022213025)
        Viscous  : (40.83638870876127 0.01264205402321168 0.05785965854335417)
    Sum of moments
        Total    : (12.85261979318638 -25.64007073618841 -143.6841561101726)
        Pressure : (12.59016104928321 -29.34815957237854 -50.16863088342239)
        Viscous  : (0.2624587439031679 3.708088836190127 -93.51552522675017)


forceCoeffs forceCoeffs execute:
    Coefficients
        Cd       : 0.03988742836301948	(pressure: 0.007218317396010462	viscous: 0.03266911096700902)
        Cs       : -0.003436075744605104	(pressure: -0.00338978801777042	viscous: -4.628772683468333e-05)
        Cl       : -0.004598484282785229	(pressure: -0.004608597926003799	viscous: 1.011364321856935e-05)
        CmRoll       : 0.0102820958345491	(pressure: 0.01007212883942657	viscous: 0.0002099669951225344)
        CmPitch       : 0.1149473248881381	(pressure: 0.04013490470673791	viscous: 0.07481242018140014)
        CmYaw       : -0.02051205658895073	(pressure: -0.02347852765790283	viscous: 0.002966471068952102)
        Cd(f)    : 0.03022581001605884
        Cd(r)    : 0.009661618346960636
        Cs(f)    : -0.02223009446125328
        Cs(r)    : 0.01879401871664818
        Cl(f)    : 0.1126480827467454
        Cl(r)    : -0.1172465670295307
Courant Number mean: 0.02468804037914154 max: 0.9784018985072929
deltaT = 0.004347826086956521
Time = 0.130435

PIMPLE: iteration 1
GAMG:  Solving for p, Initial residual = 0.07626780555384494, Final residual = 4.375955208919908e-09, No Iterations 15
time step continuity errors : sum local = 7.146566626151803e-15, global = 2.714316552365747e-15, cumulative = -2.893914801956077e-14
ExecutionTime = 5.25 s  ClockTime = 6 s

forces forces write:
    Sum of forces
        Total    : (50.09353921188578 -6.264309267745545 7.440005583410263)
        Pressure : (9.438049192649538 -6.292620086319049 7.417310795096761)
        Viscous  : (40.65549001923625 0.0283108185735044 0.02269478831350173)
    Sum of moments
        Total    : (17.77920139743122 -33.54460114304008 -146.051689412429)
        Pressure : (17.61428653393612 -37.38822508207724 -53.0729824818204)
        Viscous  : (0.1649148634951006 3.843623939037166 -92.97870693060861)


forceCoeffs forceCoeffs execute:
    Coefficients
        Cd       : 0.04007483136950863	(pressure: 0.007550439354119631	viscous: 0.032524392015389)
        Cs       : -0.005952004466728211	(pressure: -0.00593384863607741	viscous: -1.815583065080138e-05)
        Cl       : -0.005011447414196436	(pressure: -0.00503409606905524	viscous: 2.264865485880352e-05)
        CmRoll       : 0.01422336111794498	(pressure: 0.0140914292271489	viscous: 0.0001319318907960805)
        CmPitch       : 0.1168413515299432	(pressure: 0.04245838598545632	viscous: 0.0743829655444869)
        CmYaw       : -0.02683568091443206	(pressure: -0.02991058006566179	viscous: 0.003074899151229733)
        Cd(f)    : 0.03426077680269929
        Cd(r)    : 0.005814054566809338
        Cs(f)    : -0.02981168314779617
        Cs(r)    : 0.02385967868106796
        Cl(f)    : 0.114335627822845
        Cl(r)    : -0.1193470752370414
Courant Number mean: 0.02468794412437183 max: 0.9758575451767308
deltaT = 0.004347826086956521
Time = 0.134783

PIMPLE: iteration 1
GAMG:  Solving for p, Initial residual = 0.07326197389741128, Final residual = 9.675574234807893e-09, No Iterations 14
time step continuity errors : sum local = 1.613223733105974e-14, global = -6.12987301475793e-15, cumulative = -3.506902103431871e-14
ExecutionTime = 5.41 s  ClockTime = 6 s

forces forces write:
    Sum of forces
        Total    : (49.60266415534637 -6.104801051244242 4.966785080475421)
        Pressure : (9.124549192513966 -6.147581347595502 4.974567099519929)
        Viscous  : (40.4781149628324 0.04278029635126075 -0.007782019044508141)
    Sum of moments
        Total    : (13.60036159299973 -26.74388789832258 -145.4458595386783)
        Pressure : (13.51770106825449 -30.73866142363564 -52.9872025676265)
        Viscous  : (0.08266052474524771 3.994773525313059 -92.45865697105178)


forceCoeffs forceCoeffs execute:
    Coefficients
        Cd       : 0.03968213132427709	(pressure: 0.007299639354011173	viscous: 0.03238249197026592)
        Cs       : -0.003973428064380336	(pressure: -0.003979653679615943	viscous: 6.225615235606513e-06)
        Cl       : -0.004883840840995394	(pressure: -0.004918065078076402	viscous: 3.42242370810086e-05)
        CmRoll       : 0.01088028927439979	(pressure: 0.01081416085460359	viscous: 6.612841979619817e-05)
        CmPitch       : 0.1163566876309426	(pressure: 0.0423897620541012	viscous: 0.07396692557684142)
        CmYaw       : -0.02139511031865807	(pressure: -0.02459092913890852	viscous: 0.003195818820250447)
        Cd(f)    : 0.03072135493653834
        Cd(r)    : 0.008960776387738758
        Cs(f)    : -0.02338182435084824
        Cs(r)    : 0.0194083962864679
        Cl(f)    : 0.1139147672104449
        Cl(r)    : -0.1187986080514403
Courant Number mean: 0.02468784675946351 max: 0.9732673772853297
deltaT = 0.004347826086956521
Time = 0.13913

PIMPLE: iteration 1
GAMG:  Solving for p, Initial residual = 0.07430831369657644, Final residual = 6.781591682980597e-09, No Iterations 14
time step continuity errors : sum local = 1.122762914866988e-14, global = 4.304656701422664e-15, cumulative = -3.076436433289604e-14
ExecutionTime = 5.55 s  ClockTime = 7 s

forces forces write:
    Sum of forces
        Total    : (49.37151899301792 -5.88632237863836 5.523007072769846)
        Pressure : (9.065643928912296 -5.947728608002257 5.533244038654538)
        Viscous  : (40.30587506410563 0.06140622936389777 -0.01023696588469209)
    Sum of moments
        Total    : (13.41309415844689 -25.39630605543315 -142.0224844099299)
        Pressure : (13.34044019803871 -29.37934244040193 -50.05233548775605)
        Viscous  : (0.07265396040817548 3.983036384968776 -91.97014892217383)


forceCoeffs forceCoeffs execute:
    Coefficients
        Cd       : 0.03949721519441434	(pressure: 0.007252515143129837	viscous: 0.03224470005128451)
        Cs       : -0.004418405658215877	(pressure: -0.004426595230923631	viscous: 8.189572707753675e-06)
        Cl       : -0.004709057902910687	(pressure: -0.004758182886401806	viscous: 4.912498349111822e-05)
        CmRoll       : 0.01073047532675751	(pressure: 0.01067235215843097	viscous: 5.812316832654039e-05)
        CmPitch       : 0.1136179875279439	(pressure: 0.04004186839020484	viscous: 0.07357611913773907)
        CmYaw       : -0.02031704484434652	(pressure: -0.02350347395232154	viscous: 0.003186429107975021)
        Cd(f)    : 0.03047908292396468
        Cd(r)    : 0.009018132270449659
        Cs(f)    : -0.02252624767345446
        Cs(r)    : 0.01810784201523858
        Cl(f)    : 0.1112634585764886
        Cl(r)    : -0.1159725164793993
Courant Number mean: 0.02468775272523673 max: 0.9699886501761206
deltaT = 0.00434782608695652
Time = 0.143478

PIMPLE: iteration 1
GAMG:  Solving for p, Initial residual = 0.07668823570727372, Final residual = 9.907447009953111e-09, No Iterations 14
time step continuity errors : sum local = 1.650437998384244e-14, global = -6.273065000907537e-15, cumulative = -3.703742933380358e-14
ExecutionTime = 5.69 s  ClockTime = 7 s

forces forces write:
    Sum of forces
        Total    : (49.23807182271293 -6.077108398919562 5.095047342043606)
        Pressure : (9.102575123762438 -6.159039749383293 5.104125338255895)
        Viscous  : (40.13549669895048 0.08193135046373071 -0.009077996212288827)
    Sum of moments
        Total    : (14.36650871096467 -25.63543825861147 -143.6339743208462)
        Pressure : (14.29766214231734 -29.60625882256679 -52.14684766544697)
        Viscous  : (0.06884656864732797 3.970820563955314 -91.48712665539918)


forceCoeffs forceCoeffs execute:
    Coefficients
        Cd       : 0.03939045745817034	(pressure: 0.007282060099009951	viscous: 0.03210839735916039)
        Cs       : -0.004076037873634885	(pressure: -0.004083300270604716	viscous: 7.262396969831062e-06)
        Cl       : -0.00486168671913565	(pressure: -0.004927231799506634	viscous: 6.554508037098456e-05)
        CmRoll       : 0.01149320696877174	(pressure: 0.01143812971385387	viscous: 5.507725491786237e-05)
        CmPitch       : 0.1149071794566769	(pressure: 0.04171747813235758	viscous: 0.07318970132431935)
        CmYaw       : -0.02050835060688918	(pressure: -0.02368500705805343	viscous: 0.003176656451164252)
        Cd(f)    : 0.0311884356978569
        Cd(r)    : 0.008202021760313434
        Cs(f)    : -0.02254636954370662
        Cs(r)    : 0.01847033167007174
        Cl(f)    : 0.1124763360971091
        Cl(r)    : -0.1173380228162447
Courant Number mean: 0.02468765987824631 max: 0.9671019263985997
deltaT = 0.00434782608695652
Time = 0.147826

PIMPLE: iteration 1
GAMG:  Solving for p, Initial residual = 0.07396825912457816, Final residual = 7.349701592211716e-09, No Iterations 14
time step continuity errors : sum local = 1.216253457689193e-14, global = 4.632046934956333e-15, cumulative = -3.240538239884724e-14
ExecutionTime = 5.85 s  ClockTime = 7 s

forces forces write:
    Sum of forces
        Total    : (48.83586209439947 -5.928824285430927 4.554788894596183)
        Pressure : (8.865556039184122 -6.028898511905396 4.570744013439632)
        Viscous  : (39.97030605521535 0.1000742264744684 -0.01595511884344874)
    Sum of moments
        Total    : (11.39074536097424 -19.0771528951491 -141.3194645779551)
        Pressure : (11.33742601245717 -23.07664056637837 -50.28718206178269)
        Viscous  : (0.0533193485170709 3.999487671229272 -91.03228251617243)


forceCoeffs forceCoeffs execute:
    Coefficients
        Cd       : 0.03906868967551958	(pressure: 0.007092444831347298	viscous: 0.03197624484417228)
        Cs       : -0.003643831115676947	(pressure: -0.003656595210751706	viscous: 1.276409507475899e-05)
        Cl       : -0.004743059428344742	(pressure: -0.004823118809524317	viscous: 8.005938117957469e-05)
        CmRoll       : 0.00911259628877939	(pressure: 0.009069940809965734	viscous: 4.265547881365672e-05)
        CmPitch       : 0.1130555716623641	(pressure: 0.04022974564942616	viscous: 0.07282582601293795)
        CmYaw       : -0.01526172231611928	(pressure: -0.0184613124531027	viscous: 0.003199590136983417)
        Cd(f)    : 0.02864694112653918
        Cd(r)    : 0.0104217485489804
        Cs(f)    : -0.01708363787395776
        Cs(r)    : 0.01343980675828081
        Cl(f)    : 0.1106840419481917
        Cl(r)    : -0.1154271013765365
Courant Number mean: 0.02468756711050775 max: 0.9642793723641769
deltaT = 0.00434782608695652
Time = 0.152174

PIMPLE: iteration 1
GAMG:  Solving for p, Initial residual = 0.07306051761911535, Final residual = 6.5045816920701e-09, No Iterations 14
time step continuity errors : sum local = 1.078851898717066e-14, global = 4.098812386565601e-15, cumulative = -2.830657001228164e-14
ExecutionTime = 6.01 s  ClockTime = 7 s

forces forces write:
    Sum of forces
        Total    : (48.60893598829632 -5.78293833882858 5.066386498607669)
        Pressure : (8.796798296568074 -5.893637606619508 5.083348374192238)
        Viscous  : (39.81213769172825 0.1106992677909275 -0.0169618755845693)
    Sum of moments
        Total    : (13.07220147998824 -23.76569457221718 -141.895312356185)
        Pressure : (13.03053956464536 -27.80793096677646 -51.27814337498761)
        Viscous  : (0.04166191534287912 4.042236394559281 -90.61716898119741)


forceCoeffs forceCoeffs execute:
    Coefficients
        Cd       : 0.03888714879063706	(pressure: 0.007037438637254459	viscous: 0.0318497101533826)
        Cs       : -0.004053109198886135	(pressure: -0.004066678699353791	viscous: 1.356950046765544e-05)
        Cl       : -0.004626350671062865	(pressure: -0.004714910085295607	viscous: 8.855941423274202e-05)
        CmRoll       : 0.01045776118399059	(pressure: 0.01042443165171629	viscous: 3.33295322743033e-05)
        CmPitch       : 0.113516249884948	(pressure: 0.04102251469999009	viscous: 0.07249373518495793)
        CmYaw       : -0.01901255565777375	(pressure: -0.02224634477342117	viscous: 0.003233789115647425)
        Cd(f)    : 0.02990133557930912
        Cd(r)    : 0.00898581321132794
        Cs(f)    : -0.02103911025721681
        Cs(r)    : 0.01698600105833068
        Cl(f)    : 0.1112030745494166
        Cl(r)    : -0.1158294252204795
Courant Number mean: 0.0246874751528172 max: 0.9619220686160093
deltaT = 0.004347826086956519
Time = 0.156522

PIMPLE: iteration 1
GAMG:  Solving for p, Initial residual = 0.07327811188125083, Final residual = 6.891885268877925e-09, No Iterations 14
time step continuity errors : sum local = 1.154701899122008e-14, global = 4.396376972733174e-15, cumulative = -2.391019303954847e-14
ExecutionTime = 6.15 s  ClockTime = 7 s

forces forces write:
    Sum of forces
        Total    : (48.45212319074555 -5.577896570282173 4.7797927011835)
        Pressure : (8.792367378893873 -5.694461678599143 4.79271648558582)
        Viscous  : (39.65975581185167 0.1165651083169697 -0.01292378440231942)
    Sum of moments
        Total    : (12.30266019464023 -21.53058903698167 -139.5517467681242)
        Pressure : (12.25895218407867 -25.58448320385074 -49.30733141373921)
        Viscous  : (0.04370801056155536 4.053894166869068 -90.24441535438496)


forceCoeffs forceCoeffs execute:
    Coefficients
        Cd       : 0.03876169855259644	(pressure: 0.007033893903115099	viscous: 0.03172780464948134)
        Cs       : -0.003823834160946801	(pressure: -0.003834173188468656	viscous: 1.033902752185554e-05)
        Cl       : -0.004462317256225738	(pressure: -0.004555569342879314	viscous: 9.325208665357576e-05)
        CmRoll       : 0.009842128155712183	(pressure: 0.009807161747262939	viscous: 3.496640844924429e-05)
        CmPitch       : 0.1116413974144993	(pressure: 0.03944586513099137	viscous: 0.07219553228350797)
        CmYaw       : -0.01722447122958534	(pressure: -0.0204675865630806	viscous: 0.003243115333495254)
        Cd(f)    : 0.0292229774320104
        Cd(r)    : 0.009538721120586036
        Cs(f)    : -0.01913638831005874
        Cs(r)    : 0.01531255414911194
        Cl(f)    : 0.1094102387863865
        Cl(r)    : -0.1138725560426122
Courant Number mean: 0.02468738323279596 max: 0.9594526742329189
deltaT = 0.004347826086956519
Time = 0.16087

PIMPLE: iteration 1
GAMG:  Solving for p, Initial residual = 0.07193160962493077, Final residual = 6.384081430035626e-09, No Iterations 14
time step continuity errors : sum local = 1.080657372331172e-14, global = -4.126728755529529e-15, cumulative = -2.8036921795078e-14
ExecutionTime = 6.29 s  ClockTime = 7 s

forces forces write:
    Sum of forces
        Total    : (48.38598995559276 -5.74618583702086 4.652036569628057)
        Pressure : (8.871823039233657 -5.869703859862449 4.670950076587507)
        Viscous  : (39.5141669163591 0.1235180228415889 -0.01891350695945115)
    Sum of moments
        Total    : (12.58737372723214 -18.34155942575333 -139.9871608402964)
        Pressure : (12.56130333877714 -22.42112302180622 -50.12311014767414)
        Viscous  : (0.02607038845499836 4.079563596052887 -89.86405069262227)


forceCoeffs forceCoeffs execute:
    Coefficients
        Cd       : 0.03870879196447421	(pressure: 0.007097458431386926	viscous: 0.03161133353308728)
        Cs       : -0.003721629255702445	(pressure: -0.003736760061270006	viscous: 1.513080556756092e-05)
        Cl       : -0.004596948669616688	(pressure: -0.00469576308788996	viscous: 9.881441827327109e-05)
        CmRoll       : 0.01006989898178571	(pressure: 0.01004904267102171	viscous: 2.085631076399869e-05)
        CmPitch       : 0.1119897286722371	(pressure: 0.04009848811813931	viscous: 0.07189124055409782)
        CmYaw       : -0.01467324754060266	(pressure: -0.01793689841744497	viscous: 0.00326365087684231)
        Cd(f)    : 0.02942429496402282
        Cd(r)    : 0.00928449700045139
        Cs(f)    : -0.01653406216845388
        Cs(r)    : 0.01281243291275144
        Cl(f)    : 0.1096912543374288
        Cl(r)    : -0.1142882030070455
Courant Number mean: 0.02468729216011724 max: 0.9567842114593347
deltaT = 0.004347826086956518
Time = 0.165217

PIMPLE: iteration 1
GAMG:  Solving for p, Initial residual = 0.07667069212211658, Final residual = 4.354000708949211e-09, No Iterations 15
time step continuity errors : sum local = 7.389197539328073e-15, global = 2.804387981077463e-15, cumulative = -2.523253381400053e-14
ExecutionTime = 6.44 s  ClockTime = 7 s

forces forces write:
    Sum of forces
        Total    : (48.50948912875678 -5.930422860101575 6.217909473173866)
        Pressure : (9.143011706461019 -6.066094950666921 6.240041757509745)
        Viscous  : (39.36647742229576 0.1356720905653462 -0.02213228433587939)
    Sum of moments
        Total    : (15.3525247705273 -22.17455528024382 -140.8171828150253)
        Pressure : (15.33335297321235 -26.21395502003881 -51.35128600171922)
        Viscous  : (0.01917179731495661 4.039399739794983 -89.46589681330603)


forceCoeffs forceCoeffs execute:
    Coefficients
        Cd       : 0.03880759130300542	(pressure: 0.007314409365168815	viscous: 0.03149318193783661)
        Cs       : -0.004974327578539093	(pressure: -0.004992033406007797	viscous: 1.770582746870352e-05)
        Cl       : -0.00474433828808126	(pressure: -0.004852875960533537	viscous: 0.000108537672452277)
        CmRoll       : 0.01228201981642184	(pressure: 0.01226668237856988	viscous: 1.533743785196529e-05)
        CmPitch       : 0.1126537462520202	(pressure: 0.04108102880137538	viscous: 0.07157271745064483)
        CmYaw       : -0.01773964422419506	(pressure: -0.02097116401603105	viscous: 0.003231519791835987)
        Cd(f)    : 0.03168581546792455
        Cd(r)    : 0.007121775835080866
        Cs(f)    : -0.0202268080134646
        Cs(r)    : 0.01525248043492551
        Cl(f)    : 0.1102815771079796
        Cl(r)    : -0.1150259153960608
Courant Number mean: 0.02468720245983804 max: 0.9544731258089784
deltaT = 0.004347826086956517
Time = 0.169565

PIMPLE: iteration 1
GAMG:  Solving for p, Initial residual = 0.07166935047507832, Final residual = 5.078574100255178e-09, No Iterations 14
time step continuity errors : sum local = 8.839828576200845e-15, global = 3.570220964079836e-15, cumulative = -2.16623128499207e-14
ExecutionTime = 6.58 s  ClockTime = 8 s

forces forces write:
    Sum of forces
        Total    : (48.36455381853384 -5.986517837833278 4.793906595970281)
        Pressure : (9.146266441304967 -6.134555328906774 4.817935313415413)
        Viscous  : (39.21828737722887 0.148037491073496 -0.02402871744513185)
    Sum of moments
        Total    : (11.00362611027797 -13.58169480848169 -141.19702673156)
        Pressure : (10.96549070880774 -17.56974068850216 -52.12126201517508)
        Viscous  : (0.03813540147022819 3.988045880020467 -89.07576471638495)


forceCoeffs forceCoeffs execute:
    Coefficients
        Cd       : 0.03869164305482707	(pressure: 0.007317013153043974	viscous: 0.03137462990178309)
        Cs       : -0.003835125276776225	(pressure: -0.003854348250732331	viscous: 1.922297395610548e-05)
        Cl       : -0.004789214270266623	(pressure: -0.00490764426312542	viscous: 0.0001184299928587968)
        CmRoll       : 0.008802900888222375	(pressure: 0.008772392567046192	viscous: 3.050832117618255e-05)
        CmPitch       : 0.112957621385248	(pressure: 0.04169700961214006	viscous: 0.07126061177310797)
        CmYaw       : -0.01086535584678536	(pressure: -0.01405579255080173	viscous: 0.003190436704016373)
        Cd(f)    : 0.02814872241563591
        Cd(r)    : 0.01054292063919116
        Cs(f)    : -0.01278291848517347
        Cs(r)    : 0.008947793208397245
        Cl(f)    : 0.1105630142501147
        Cl(r)    : -0.1153522285203814
Courant Number mean: 0.02468711212436374 max: 0.9523500461925638
deltaT = 0.004347826086956517
Time = 0.173913

PIMPLE: iteration 1
GAMG:  Solving for p, Initial residual = 0.07652329747585361, Final residual = 4.404731488307249e-09, No Iterations 15
time step continuity errors : sum local = 7.725886707179727e-15, global = -3.099517253307925e-15, cumulative = -2.476183010322862e-14
ExecutionTime = 6.75 s  ClockTime = 8 s

forces forces write:
    Sum of forces
        Total    : (48.252858074634 -6.393378294621218 1.783818988040222)
        Pressure : (9.182803604609298 -6.552328777758921 1.800886346736752)
        Viscous  : (39.0700544700247 0.1589504831377024 -0.01706735869652967)
    Sum of moments
        Total    : (6.954927188963588 -4.965829234154807 -142.3202682321207)
        Pressure : (6.876606059188851 -8.853774370118579 -53.6358668480138)
        Viscous  : (0.07832112977473767 3.887945135963772 -88.68440138410688)


forceCoeffs forceCoeffs execute:
    Coefficients
        Cd       : 0.0386022864597072	(pressure: 0.007346242883687439	viscous: 0.03125604357601976)
        Cs       : -0.001427055190432178	(pressure: -0.001440709077389402	viscous: 1.365388695722373e-05)
        Cl       : -0.005114702635696975	(pressure: -0.005241863022207137	viscous: 0.000127160386510162)
        CmRoll       : 0.005563941751170871	(pressure: 0.005501284847351081	viscous: 6.265690381979013e-05)
        CmPitch       : 0.1138562145856965	(pressure: 0.04290869347841104	viscous: 0.0709475211072855)
        CmYaw       : -0.003972663387323845	(pressure: -0.007083019496094863	viscous: 0.003110356108771018)
        Cd(f)    : 0.02486508498102447
        Cd(r)    : 0.01373720147868273
        Cs(f)    : -0.004686190982539935
        Cs(r)    : 0.003259135792107756
        Cl(f)    : 0.1112988632678481
        Cl(r)    : -0.116413565903545
Courant Number mean: 0.02468702198343358 max: 0.9505405371659391
deltaT = 0.004347826086956515
Time = 0.178261

PIMPLE: iteration 1
GAMG:  Solving for p, Initial residual = 0.07415958968645363, Final residual = 6.098548933012027e-09, No Iterations 14
time step continuity errors : sum local = 1.071092804299714e-14, global = -4.197344034869468e-15, cumulative = -2.895917413809809e-14
ExecutionTime = 6.9 s  ClockTime = 8 s

forces forces write:
    Sum of forces
        Total    : (47.97027601105584 -6.307184157522842 2.574877093757237)
        Pressure : (9.051087166670388 -6.474507268700583 2.579214481061821)
        Viscous  : (38.91918884438546 0.16732311117774 -0.004337387304583336)
    Sum of moments
        Total    : (9.649290836315794 -10.89822442370527 -140.872471828868)
        Pressure : (9.520012334809048 -14.67475411167317 -52.57478825518251)
        Viscous  : (0.1292785015067468 3.776529687967904 -88.29768357368546)


forceCoeffs forceCoeffs execute:
    Coefficients
        Cd       : 0.03837622080884468	(pressure: 0.007240869733336311	viscous: 0.03113535107550837)
        Cs       : -0.00205990167500579	(pressure: -0.002063371584849457	viscous: 3.469909843666669e-06)
        Cl       : -0.005045747326018275	(pressure: -0.005179605814960467	viscous: 0.000133858488942192)
        CmRoll       : 0.007719432669052636	(pressure: 0.007616009867847238	viscous: 0.0001034228012053975)
        CmPitch       : 0.1126979774630944	(pressure: 0.04205983060414601	viscous: 0.07063814685894837)
        CmYaw       : -0.008718579538964214	(pressure: -0.01173980328933854	viscous: 0.003021223750374323)
        Cd(f)    : 0.02690754307347498
        Cd(r)    : 0.0114686777353697
        Cs(f)    : -0.009748530376467109
        Cs(r)    : 0.007688628701461319
        Cl(f)    : 0.1101751038000852
        Cl(r)    : -0.1152208511261035
Courant Number mean: 0.02468693302859714 max: 0.948465004029967
deltaT = 0.004347826086956513
Time = 0.182609

PIMPLE: iteration 1
GAMG:  Solving for p, Initial residual = 0.07435306710912047, Final residual = 6.549446050335628e-09, No Iterations 14
time step continuity errors : sum local = 1.158646570263774e-14, global = 4.415084735216956e-15, cumulative = -2.454408940288114e-14
ExecutionTime = 7.06 s  ClockTime = 8 s

forces forces write:
    Sum of forces
        Total    : (47.77414801713672 -6.176818019597802 2.415206248791677)
        Pressure : (9.006153097343855 -6.352165017121945 2.403426524341091)
        Viscous  : (38.76799491979286 0.1753469975241425 0.0117797244505861)
    Sum of moments
        Total    : (10.25473649215895 -14.61804328311763 -140.6032651360723)
        Pressure : (10.07683048658592 -18.28313386470357 -52.68651372352743)
        Viscous  : (0.1779060055730303 3.665090581585937 -87.91675141254483)


forceCoeffs forceCoeffs execute:
    Coefficients
        Cd       : 0.03821931841370937	(pressure: 0.007204922477875084	viscous: 0.03101439593583429)
[...]
        CmYaw       : -1.185306978807183e+35	(pressure: -1.185306978807183e+35	viscous: -79725257171359.62)
        Cd(f)    : 4.99993850327222e+34
        Cd(r)    : -4.848802647090678e+34
        Cs(f)    : -1.288122176266786e+35
        Cs(r)    : 1.08249178134758e+35
        Cl(f)    : 4.914244561455175e+33
        Cl(r)    : -5.162597689782011e+33
Courant Number mean: 0.0002449516063046451 max: 1.70554790892846
deltaT = 2.952566553145148e-21
Time = 2.21022

PIMPLE: iteration 1
GAMG:  Solving for p, Initial residual = 0.4719734724597339, Final residual = 5.285455885689513e-09, No Iterations 16
time step continuity errors : sum local = 1.932118905544628e-12, global = 7.260228602005395e-13, cumulative = 1.006347370681035e-11
ExecutionTime = 98.44 s  ClockTime = 106 s

forces forces write:
    Sum of forces
        Total    : (5.495476704471927e+36 -9.030410335268002e+35 7.476961910770079e+37)
        Pressure : (5.495476704471927e+36 -9.030410335268002e+35 7.476961910770079e+37)
        Viscous  : (7.514513084592211e+16 -7475802269694079 3.387530014951677e+16)
    Sum of moments
        Total    : (1.79055879613137e+38 -4.309914953715864e+38 -1.832028910356147e+37)
        Pressure : (1.79055879613137e+38 -4.309914953715864e+38 -1.832028910356147e+37)
        Viscous  : (7.763386708528341e+16 -1.699690570386139e+17 -2.127543153748894e+17)


forceCoeffs forceCoeffs execute:
    Coefficients
        Cd       : 4.396381363577542e+33	(pressure: 4.396381363577542e+33	viscous: 60116104676737.7)
        Cs       : -5.981569528616064e+34	(pressure: -5.981569528616064e+34	viscous: -27100240119613.41)
        Cl       : -7.224328268214402e+32	(pressure: -7.224328268214402e+32	viscous: -5980641815755.264)
        CmRoll       : 1.432447036905096e+35	(pressure: 1.432447036905096e+35	viscous: 62107093668226.73)
        CmPitch       : 1.465623128284917e+34	(pressure: 1.465623128284917e+34	viscous: 170203452299911.5)
        CmYaw       : -3.447931962972692e+35	(pressure: -3.447931962972692e+35	viscous: -135975245630891.1)
        Cd(f)    : 1.454428943722984e+35
        Cd(r)    : -1.410465130087209e+35
        Cs(f)    : -3.747010439403495e+35
        Cs(r)    : 3.148853486541889e+35
        Cl(f)    : 1.429501486943845e+34
        Cl(r)    : -1.501744769625989e+34
Courant Number mean: 0.0002449516066452673 max: 1.705547908948658
deltaT = 1.731154274619691e-21
Time = 2.21022

PIMPLE: iteration 1
GAMG:  Solving for p, Initial residual = 0.4719734721357629, Final residual = 5.285456032681875e-09, No Iterations 16
time step continuity errors : sum local = 1.932118947927422e-12, global = 7.260228468927694e-13, cumulative = 1.078949655370312e-11
ExecutionTime = 98.59999999999999 s  ClockTime = 106 s

forces forces write:
    Sum of forces
        Total    : (1.598575736082561e+37 -2.626850398062321e+36 2.174968721428164e+38)
        Pressure : (1.598575736082561e+37 -2.626850398062321e+36 2.174968721428164e+38)
        Viscous  : (1.281636205506437e+17 -1.275033909692966e+16 5.777594734943597e+16)
    Sum of moments
        Total    : (5.208545156096589e+38 -1.253708434181339e+39 -5.329177310294393e+37)
        Pressure : (5.208545156096589e+38 -1.253708434181339e+39 -5.329177310294393e+37)
        Viscous  : (1.324082797156296e+17 -2.8989036987356e+17 -3.628626779571563e+17)


forceCoeffs forceCoeffs execute:
    Coefficients
        Cd       : 1.278860588866049e+34	(pressure: 1.278860588866049e+34	viscous: 102530896440515)
        Cs       : -1.739974977142532e+35	(pressure: -1.739974977142532e+35	viscous: -46220757879548.77)
        Cl       : -2.101480318449857e+33	(pressure: -2.101480318449857e+33	viscous: -10200271277543.73)
        CmRoll       : 4.166836124877271e+35	(pressure: 4.166836124877271e+35	viscous: 105926623772503.7)
        CmPitch       : 4.263341848235515e+34	(pressure: 4.263341848235515e+34	viscous: 290290142365725.1)
        CmYaw       : -1.002966747345071e+36	(pressure: -1.002966747345071e+36	viscous: -231912295898848)
        Cd(f)    : 4.230779154320574e+35
        Cd(r)    : -4.102893095433969e+35
        Cs(f)    : -1.089965496202198e+36
        Cs(r)    : 9.159679984879448e+35
        Cl(f)    : 4.158267832313022e+34
        Cl(r)    : -4.368415864158008e+34
Courant Number mean: 0.000244951606281569 max: 1.705547908962409
deltaT = 1.015013571605185e-21
Time = 2.21022

PIMPLE: iteration 1
GAMG:  Solving for p, Initial residual = 0.4719734724772218, Final residual = 5.285455959508821e-09, No Iterations 16
time step continuity errors : sum local = 1.932118914708332e-12, global = 7.260228538012701e-13, cumulative = 1.151551940750439e-11
ExecutionTime = 98.75 s  ClockTime = 107 s

forces forces write:
    Sum of forces
        Total    : (4.650086850043325e+37 -7.641228359560036e+36 6.326752733826481e+38)
        Pressure : (4.650086850043325e+37 -7.641228359560036e+36 6.326752733826481e+38)
        Viscous  : (2.185891954030366e+17 -2.174631392695063e+16 9.853964616459832e+16)
    Sum of moments
        Total    : (1.515110400912203e+39 -3.646904523518838e+39 -1.550201012070653e+38)
        Pressure : (1.515110400912203e+39 -3.646904523518838e+39 -1.550201012070653e+38)
        Viscous  : (2.258286645225749e+17 -4.944219140664686e+17 -6.188796812868118e+17)


forceCoeffs forceCoeffs execute:
    Coefficients
        Cd       : 3.72006948003466e+34	(pressure: 3.72006948003466e+34	viscous: 174871356322429.3)
        Cs       : -5.061402187061185e+35	(pressure: -5.061402187061185e+35	viscous: -78831716931678.66)
        Cl       : -6.112982687648029e+33	(pressure: -6.112982687648029e+33	viscous: -17397051141560.51)
        CmRoll       : 1.212088320729763e+36	(pressure: 1.212088320729763e+36	viscous: 180662931618059.9)
        CmPitch       : 1.240160809656522e+35	(pressure: 1.240160809656522e+35	viscous: 495103745029449.4)
        CmYaw       : -2.91752361881507e+36	(pressure: -2.91752361881507e+36	viscous: -395537531253174.9)
        Cd(f)    : 1.230688668129936e+36
        Cd(r)    : -1.19348797332959e+36
        Cs(f)    : -3.17059372816813e+36
        Cs(r)    : 2.664453509462011e+36
        Cl(f)    : 1.209595896218282e+35
        Cl(r)    : -1.270725723094763e+35
Courant Number mean: 0.0002449516066212766 max: 1.705547908972431
deltaT = 5.951246319528581e-22
Time = 2.21022

PIMPLE: iteration 1
GAMG:  Solving for p, Initial residual = 0.4719734721506449, Final residual = 5.285456033869198e-09, No Iterations 16
time step continuity errors : sum local = 1.932118940058224e-12, global = 7.260228767732102e-13, cumulative = 1.22415422842776e-11
ExecutionTime = 98.91 s  ClockTime = 107 s

forces forces write:
    Sum of forces
        Total    : (1.352660817192709e+38 -2.22275211539961e+37 1.840385101167308e+39)
        Pressure : (1.352660817192709e+38 -2.22275211539961e+37 1.840385101167308e+39)
        Viscous  : (3.728143445544785e+17 -3.70893806471803e+16 1.680640875117872e+17)
    Sum of moments
        Total    : (4.40729506121117e+39 -1.06084574957454e+40 -4.509369915789221e+38)
        Pressure : (4.40729506121117e+39 -1.06084574957454e+40 -4.509369915789221e+38)
        Viscous  : (3.851616066909791e+17 -8.432602618650006e+17 -1.055528946809162e+18)


forceCoeffs forceCoeffs execute:
    Coefficients
        Cd       : 1.082128653754167e+35	(pressure: 1.082128653754167e+35	viscous: 298251475643582.8)
        Cs       : -1.472308080933847e+36	(pressure: -1.472308080933847e+36	viscous: -134451270009429.7)
        Cl       : -1.778201692319688e+34	(pressure: -1.778201692319688e+34	viscous: -29671504517744.25)
        CmRoll       : 3.525836048968937e+36	(pressure: 3.525836048968937e+36	viscous: 308129285352783.3)
        CmPitch       : 3.607495932631377e+35	(pressure: 3.607495932631377e+35	viscous: 844423157447329.5)
        CmYaw       : -8.486765996596321e+36	(pressure: -8.486765996596321e+36	viscous: -674608209492000.5)
        Cd(f)    : 3.579942481656645e+36
        Cd(r)    : -3.471729616281228e+36
        Cs(f)    : -9.222920037063243e+36
        Cs(r)    : 7.750611956129398e+36
        Cl(f)    : 3.518585848015393e+35
        Cl(r)    : -3.696406017247361e+35
Courant Number mean: 0.0002449516062725125 max: 1.705547908979201
deltaT = 3.48934573353058e-22
Time = 2.21022

PIMPLE: iteration 1
GAMG:  Solving for p, Initial residual = 0.4719734724849791, Final residual = 5.285455931505258e-09, No Iterations 16
time step continuity errors : sum local = 1.932118912682293e-12, global = 7.260228415371201e-13, cumulative = 1.296756512581472e-11
ExecutionTime = 99.08 s  ClockTime = 107 s

forces forces write:
    Sum of forces
        Total    : (3.934746497275171e+38 -6.465749468112736e+37 5.353484561421447e+39)
        Pressure : (3.934746497275171e+38 -6.465749468112736e+37 5.353484561421447e+39)
        Viscous  : (6.358527267392084e+17 -6.325771499081001e+16 2.866413529535038e+17)
    Sum of moments
        Total    : (1.282035268522041e+40 -3.085887481964425e+40 -1.311727759373171e+39)
        Pressure : (1.282035268522041e+40 -3.085887481964425e+40 -1.311727759373171e+39)
        Viscous  : (6.569115726983768e+17 -1.438220776041718e+18 -1.800255187468225e+18)


forceCoeffs forceCoeffs execute:
    Coefficients
        Cd       : 3.147797197820137e+35	(pressure: 3.147797197820137e+35	viscous: 508682181391366.8)
        Cs       : -4.282787649137158e+36	(pressure: -4.282787649137158e+36	viscous: -229313082362803.1)
        Cl       : -5.172599574490189e+34	(pressure: -5.172599574490189e+34	viscous: -50606171992648.01)
        CmRoll       : 1.025628214817633e+37	(pressure: 1.025628214817633e+37	viscous: 525529258158701.5)
        CmPitch       : 1.049382207498537e+36	(pressure: 1.049382207498537e+36	viscous: 1440204149974580)
        CmYaw       : -2.46870998557154e+37	(pressure: -2.46870998557154e+37	viscous: -1150576620833374)
        Cd(f)    : 1.041367200806733e+37
        Cd(r)    : -1.009889228828532e+37
        Cs(f)    : -2.682849368028398e+37
        Cs(r)    : 2.254570603114683e+37
        Cl(f)    : 1.023519209626086e+36
        Cl(r)    : -1.075245205370988e+36
Courant Number mean: 0.0002449516066081745 max: 1.705547908984145
deltaT = 2.045879635013533e-22
Time = 2.21022

PIMPLE: iteration 1
GAMG:  Solving for p, Initial residual = 0.4719734721589345, Final residual = 5.285456053567703e-09, No Iterations 16
time step continuity errors : sum local = 1.932118944542821e-12, global = 7.260228486117983e-13, cumulative = 1.369358797442652e-11
ExecutionTime = 99.23999999999999 s  ClockTime = 107 s

forces forces write:
    Sum of forces
        Total    : (1.144575915351493e+39 -1.880817793020275e+38 1.557271737901277e+40)
        Pressure : (1.144575915351493e+39 -1.880817793020275e+38 1.557271737901277e+40)
        Viscous  : (1.084477286994687e+18 -1.078890644849151e+17 4.88880560293731e+17)
    Sum of moments
        Total    : (3.729304282659796e+40 -8.976518572670617e+40 -3.815676577321154e+39)
        Pressure : (3.729304282659796e+40 -8.976518572670617e+40 -3.815676577321154e+39)
        Viscous  : (1.12039415956589e+18 -2.452954437787146e+18 -3.070421471453536e+18)


forceCoeffs forceCoeffs execute:
    Coefficients
        Cd       : 9.156607322811947e+35	(pressure: 9.156607322811947e+35	viscous: 867581829595749.4)
        Cs       : -1.245817390321022e+37	(pressure: -1.245817390321022e+37	viscous: -391104448234984.8)
        Cl       : -1.50465423441622e+35	(pressure: -1.50465423441622e+35	viscous: -86311251587932.09)
        CmRoll       : 2.983443426127836e+37	(pressure: 2.983443426127836e+37	viscous: 896315327652712.1)
        CmPitch       : 3.052541261856923e+36	(pressure: 3.052541261856923e+36	viscous: 2456337177162828)
        CmYaw       : -7.181214858136494e+37	(pressure: -7.181214858136494e+37	viscous: -1962363550229717)
        Cd(f)    : 3.029226462741896e+37
        Cd(r)    : -2.937660389513777e+37
        Cs(f)    : -7.804123553297005e+37
        Cs(r)    : 6.558306162975982e+37
        Cl(f)    : 2.977308550136112e+36
        Cl(r)    : -3.127773973577734e+36
Courant Number mean: 0.0002449516062698849 max: 1.705547908987444
deltaT = 1.199543926167478e-22
Time = 2.21022

PIMPLE: iteration 1
GAMG:  Solving for p, Initial residual = 0.4719734724880418, Final residual = 5.285455929221663e-09, No Iterations 16
time step continuity errors : sum local = 1.932118948909701e-12, global = 7.260228056520178e-13, cumulative = 1.441961078007853e-11
ExecutionTime = 99.39 s  ClockTime = 107 s

forces forces write:
    Sum of forces
        Total    : (3.329449641997757e+39 -5.471098912987701e+38 4.529937893133175e+40)
        Pressure : (3.329449641997757e+39 -5.471098912987701e+38 4.529937893133175e+40)
        Viscous  : (1.849627971628783e+18 -1.840099668654623e+17 8.33809217122674e+17)
    Sum of moments
        Total    : (1.084814960517577e+41 -2.611173802337869e+41 -1.109939744083843e+40)
        Pressure : (1.084814960517577e+41 -2.611173802337869e+41 -1.109939744083843e+40)
        Viscous  : (1.910885915489509e+18 -4.183631311265946e+18 -5.236750919395895e+18)


forceCoeffs forceCoeffs execute:
    Coefficients
        Cd       : 2.663559713598205e+36	(pressure: 2.663559713598205e+36	viscous: 1479702377303026)
        Cs       : -3.62395031450654e+37	(pressure: -3.62395031450654e+37	viscous: -667047373698139.2)
        Cl       : -4.376879130390161e+35	(pressure: -4.376879130390161e+35	viscous: -147207973492369.8)
        CmRoll       : 8.678519684140613e+37	(pressure: 8.678519684140613e+37	viscous: 1528708732391607)
        CmPitch       : 8.879517952670744e+36	(pressure: 8.879517952670744e+36	viscous: 4189400735516716)
        CmYaw       : -2.088939041870295e+38	(pressure: -2.088939041870295e+38	viscous: -3346905049012757)
        Cd(f)    : 8.811697669820523e+37
        Cd(r)    : -8.545341698460704e+37
        Cs(f)    : -2.270136557595622e+38
        Cs(r)    : 1.907741526144968e+38
        Cl(f)    : 8.660673996151236e+36
        Cl(r)    : -9.098361909190252e+36
Courant Number mean: 0.0002449516066003148 max: 1.705547908989862
deltaT = 7.033188102455162e-23
Time = 2.21022

PIMPLE: iteration 1
GAMG:  Solving for p, Initial residual = 0.471973472163893, Final residual = 5.285456107936559e-09, No Iterations 16
time step continuity errors : sum local = 1.932118958597908e-12, global = 7.260228489142277e-13, cumulative = 1.514563362899276e-11
ExecutionTime = 99.55 s  ClockTime = 107 s

forces forces write:
    Sum of forces
        Total    : (9.685014967192607e+39 -1.591484514646853e+39 1.317710768343196e+41)
        Pressure : (9.685014967192607e+39 -1.591484514646853e+39 1.317710768343196e+41)
        Viscous  : (3.1546291154786e+18 -3.138378164872051e+17 1.422101567163996e+18)
    Sum of moments
        Total    : (3.155611376067309e+41 -7.595626953173614e+41 -3.228696695012367e+40)
        Pressure : (3.155611376067309e+41 -7.595626953173614e+41 -3.228696695012367e+40)
        Viscous  : (3.259107478499397e+18 -7.135383636581002e+18 -8.931529581499847e+18)


forceCoeffs forceCoeffs execute:
    Coefficients
        Cd       : 7.748011973754086e+36	(pressure: 7.748011973754086e+36	viscous: 2523703292382880)
        Cs       : -1.054168614674557e+38	(pressure: -1.054168614674557e+38	viscous: -1137681253731196)
        Cl       : -1.273187611717483e+36	(pressure: -1.273187611717483e+36	viscous: -251070253189764.1)
        CmRoll       : 2.524489100853847e+38	(pressure: 2.524489100853847e+38	viscous: 2607285982799518)
        CmPitch       : 2.582957356009894e+37	(pressure: 2.582957356009894e+37	viscous: 7145223665199878)
        CmYaw       : -6.076501562538891e+38	(pressure: -6.076501562538891e+38	viscous: -5708306909264802)
        Cd(f)    : 2.563229160722618e+38
        Cd(r)    : -2.485749040985077e+38
        Cs(f)    : -6.60358586987617e+38
        Cs(r)    : 5.549417255201613e+38
        Cl(f)    : 2.51929797542402e+37
        Cl(r)    : -2.646616736595767e+37
Courant Number mean: 0.0002449516062701377 max: 1.705547908991447
deltaT = 4.123711837924354e-23
Time = 2.21022

PIMPLE: iteration 1
GAMG:  Solving for p, Initial residual = 0.4719734724888269, Final residual = 5.28545593204874e-09, No Iterations 16
time step continuity errors : sum local = 1.932118925064536e-12, global = 7.260228306010149e-13, cumulative = 1.587165645959378e-11
ExecutionTime = 99.70999999999999 s  ClockTime = 108 s

forces forces write:
    Sum of forces
        Total    : (2.817267878984236e+40 -4.629459191985894e+39 3.833080506755177e+41)
        Pressure : (2.817267878984236e+40 -4.629459191985894e+39 3.833080506755177e+41)
        Viscous  : (5.380371097934164e+18 -5.352654281904895e+17 2.425462353559433e+18)
    Sum of moments
        Total    : (9.179337943805959e+41 -2.20948711380227e+42 -9.3919353816663e+40)
        Pressure : (9.179337943805959e+41 -2.20948711380227e+42 -9.3919353816663e+40)
        Viscous  : (5.558563943440556e+18 -1.216973863836509e+19 -1.523315160114904e+19)


forceCoeffs forceCoeffs execute:
    Coefficients
        Cd       : 2.253814303187389e+37	(pressure: 2.253814303187389e+37	viscous: 4304296878347332)
        Cs       : -3.066464405404142e+38	(pressure: -3.066464405404142e+38	viscous: -1940369882847547)
        Cl       : -3.703567353588715e+36	(pressure: -3.703567353588715e+36	viscous: -428212342552391.6)
        CmRoll       : 7.343470355044769e+38	(pressure: 7.343470355044769e+38	viscous: 4446851154752445)
        CmPitch       : 7.513548305333041e+37	(pressure: 7.513548305333041e+37	viscous: 1.218652128091923e+16)
        CmYaw       : -1.767589691041816e+39	(pressure: -1.767589691041816e+39	viscous: -9735790910692070)
        Cd(f)    : 7.456161070204138e+38
        Cd(r)    : -7.230779639885399e+38
        Cs(f)    : -1.920912911312023e+39
        Cs(r)    : 1.614266470771609e+39
        Cl(f)    : 7.328369937653605e+37
        Cl(r)    : -7.698726673012476e+37
Courant Number mean: 0.0002449516065950833 max: 1.705547908992613
deltaT = 2.417822340950853e-23
Time = 2.21022

PIMPLE: iteration 1
GAMG:  Solving for p, Initial residual = 0.4719734721671399, Final residual = 5.285456005657618e-09, No Iterations 16
time step continuity errors : sum local = 1.932118934373541e-12, global = 7.260228598445094e-13, cumulative = 1.659767931943829e-11
ExecutionTime = 99.84999999999999 s  ClockTime = 108 s

forces forces write:
    Sum of forces
        Total    : (8.195132682472817e+40 -1.346660463523431e+40 1.115002363920389e+42)
        Pressure : (8.195132682472817e+40 -1.346660463523431e+40 1.115002363920389e+42)
        Viscous  : (9.176480665365382e+18 -9.129208371591242e+17 4.136742246650233e+18)
    Sum of moments
        Total    : (2.670171807418443e+42 -6.427163086111767e+42 -2.732014136335696e+41)
        Pressure : (2.670171807418443e+42 -6.427163086111767e+42 -2.732014136335696e+41)
        Viscous  : (9.480397113591923e+18 -2.075607229262883e+19 -2.598086986038184e+19)


forceCoeffs forceCoeffs execute:
    Coefficients
        Cd       : 6.556106145978254e+37	(pressure: 6.556106145978254e+37	viscous: 7341184532292306)
        Cs       : -8.920018911363115e+38	(pressure: -8.920018911363115e+38	viscous: -3309393797320187)
        Cl       : -1.077328370818745e+37	(pressure: -1.077328370818745e+37	viscous: -730336669727299.4)
        CmRoll       : 2.136137445934754e+39	(pressure: 2.136137445934754e+39	viscous: 7584317690873539)
        CmPitch       : 2.185611309068557e+38	(pressure: 2.185611309068557e+38	viscous: 2.078469588830547e+16)
        CmYaw       : -5.141730468889414e+39	(pressure: -5.141730468889414e+39	viscous: -1.660485783410306e+16)
        Cd(f)    : 2.168917976664645e+39
        Cd(r)    : -2.103356915204863e+39
        Cs(f)    : -5.587731414457569e+39
        Cs(r)    : 4.695729523321258e+39
        Cl(f)    : 2.13174489052762e+38
        Cl(r)    : -2.239477727609494e+38
Courant Number mean: 0.0002449516062716189 max: 1.705547908993363
deltaT = 1.417622060454392e-23
Time = 2.21022

PIMPLE: iteration 1
