/*---------------------------------------------------------------------------*\
| =========                 |                                                 |
| \\      /  F ield         | OpenFOAM: The Open Source CFD Toolbox           |
|  \\    /   O peration     | Version:  v1906                                 |
|   \\  /    A nd           | Web:      www.OpenFOAM.com                      |
|    \\/     M anipulation  |                                                 |
\*---------------------------------------------------------------------------*/
Build  : v1906 OPENFOAM=1906
Arch   : "LSB;label=32;scalar=64"
Exec   : pimpleFoam -parallel
Date   : Feb 02 2021
Time   : 17:51:07
Host   : DESKTOP-BF1RMVV
PID    : 1091
I/O    : uncollated
Case   : /mnt/c/OpenFoam/icoFoam/LaminarPattern
nProcs : 4
Hosts  :
(
    (DESKTOP-BF1RMVV 4)
)
Pstream initialized with:
    floatTransfer      : 0
    nProcsSimpleSum    : 0
    commsType          : nonBlocking
    polling iterations : 0
trapFpe: Floating point exception trapping enabled (FOAM_SIGFPE).
fileModificationChecking : Monitoring run-time modified files using timeStampMaster (fileModificationSkew 10)
allowSystemOperations : Allowing user-supplied system call operations

// * * * * * * * * * * * * * * * * * * * * * * * * * * * * * * * * * * * * * //
Create time

--> FOAM Warning : 
    From function static Foam::IOstreamOption::compressionType Foam::IOstreamOption::compressionEnum(const Foam::word&)
    in file db/IOstreams/IOstreams/IOstreamOption.C at line 86
    Unknown compression specifier 'uncompressed', assuming no compression
Create mesh for time = 0


PIMPLE: Operating solver in PISO mode

Reading field p

Reading field U

Reading/calculating face flux field phi

Selecting incompressible transport model Newtonian
Selecting turbulence model type laminar
Selecting laminar stress model Stokes
No MRF models present

No finite volume options present
Courant Number mean: 2.215320375047385 max: 3898.65357525255
forces forces:
--> FOAM Warning : 
    From function Foam::labelHashSet Foam::polyBoundaryMesh::patchSet(const Foam::UList<Foam::wordRe>&, bool, bool) const
    in file meshes/polyMesh/polyBoundaryMesh/polyBoundaryMesh.C at line 868
    Cannot find any patch or group names matching "peak.*"
    rho: rhoInf
    Freestream density (rhoInf) set to 1
    Not including porosity effects

forceCoeffs forceCoeffs:
--> FOAM Warning : 
    From function Foam::labelHashSet Foam::polyBoundaryMesh::patchSet(const Foam::UList<Foam::wordRe>&, bool, bool) const
    in file meshes/polyMesh/polyBoundaryMesh/polyBoundaryMesh.C at line 868
    Cannot find any patch or group names matching "peak.*"
    rho: rhoInf
    Freestream density (rhoInf) set to 1
    Not including porosity effects

surfaceFieldValue surfaceFieldValue:
    operation     = areaAverage



Starting time loop

Courant Number mean: 0.0005680308653967654 max: 0.9996547628852691
deltaT = 0.0002564102564102564
Time = 0.00025641

PIMPLE: iteration 1
GAMG:  Solving for p, Initial residual = 1, Final residual = 6.66273225871849e-09, No Iterations 21
time step continuity errors : sum local = 3.720942684343289e-19, global = 1.728071049567402e-19, cumulative = 1.728071049567402e-19
ExecutionTime = 0.46 s  ClockTime = 1 s

forces forces write:
    Sum of forces
        Total    : (0 0 0)
        Pressure : (0 0 0)
        Viscous  : (0 0 0)
    Sum of moments
        Total    : (0 0 0)
        Pressure : (0 0 0)
        Viscous  : (0 0 0)


forceCoeffs forceCoeffs execute:
    Coefficients
        Cd       : 0	(pressure: 0	viscous: 0)
        Cs       : 0	(pressure: 0	viscous: 0)
        Cl       : 0	(pressure: 0	viscous: 0)
        CmRoll       : 0	(pressure: 0	viscous: 0)
        CmPitch       : 0	(pressure: 0	viscous: 0)
        CmYaw       : 0	(pressure: 0	viscous: 0)
        Cd(f)    : 0
        Cd(r)    : 0
        Cs(f)    : 0
        Cs(r)    : 0
        Cl(f)    : 0
        Cl(r)    : 0
Courant Number mean: 0.0005680307755981469 max: 0.9996577004578948
deltaT = 0.0002564102564102564
Time = 0.000512821

PIMPLE: iteration 1
GAMG:  Solving for p, Initial residual = 0.01900949427393952, Final residual = 9.390727812828888e-09, No Iterations 13
time step continuity errors : sum local = 2.641325765288597e-18, global = -1.266770390798275e-18, cumulative = -1.093963285841535e-18
ExecutionTime = 0.58 s  ClockTime = 1 s

forces forces write:
    Sum of forces
        Total    : (0 0 0)
        Pressure : (0 0 0)
        Viscous  : (0 0 0)
    Sum of moments
        Total    : (0 0 0)
        Pressure : (0 0 0)
        Viscous  : (0 0 0)


forceCoeffs forceCoeffs execute:
    Coefficients
        Cd       : 0	(pressure: 0	viscous: 0)
        Cs       : 0	(pressure: 0	viscous: 0)
        Cl       : 0	(pressure: 0	viscous: 0)
        CmRoll       : 0	(pressure: 0	viscous: 0)
        CmPitch       : 0	(pressure: 0	viscous: 0)
        CmYaw       : 0	(pressure: 0	viscous: 0)
        Cd(f)    : 0
        Cd(r)    : 0
        Cs(f)    : 0
        Cs(r)    : 0
        Cl(f)    : 0
        Cl(r)    : 0
Courant Number mean: 0.0005680306871823852 max: 0.9996605394062756
deltaT = 0.0002564102564102564
Time = 0.000769231

PIMPLE: iteration 1
GAMG:  Solving for p, Initial residual = 0.011453317024001, Final residual = 4.451679140591093e-09, No Iterations 13
time step continuity errors : sum local = 1.269983316142524e-18, global = -6.064275231690372e-19, cumulative = -1.700390809010573e-18
ExecutionTime = 0.71 s  ClockTime = 1 s

forces forces write:
    Sum of forces
        Total    : (0 0 0)
        Pressure : (0 0 0)
        Viscous  : (0 0 0)
    Sum of moments
        Total    : (0 0 0)
        Pressure : (0 0 0)
        Viscous  : (0 0 0)


forceCoeffs forceCoeffs execute:
    Coefficients
        Cd       : 0	(pressure: 0	viscous: 0)
        Cs       : 0	(pressure: 0	viscous: 0)
        Cl       : 0	(pressure: 0	viscous: 0)
        CmRoll       : 0	(pressure: 0	viscous: 0)
        CmPitch       : 0	(pressure: 0	viscous: 0)
        CmYaw       : 0	(pressure: 0	viscous: 0)
        Cd(f)    : 0
        Cd(r)    : 0
        Cs(f)    : 0
        Cs(r)    : 0
        Cl(f)    : 0
        Cl(r)    : 0
Courant Number mean: 0.0005680306003515291 max: 0.9996640086407784
deltaT = 0.0002564102564102564
Time = 0.00102564

PIMPLE: iteration 1
GAMG:  Solving for p, Initial residual = 0.01018060442031185, Final residual = 8.28864856433715e-09, No Iterations 13
time step continuity errors : sum local = 2.375128952285931e-18, global = -1.139303638621322e-18, cumulative = -2.839694447631895e-18
ExecutionTime = 0.82 s  ClockTime = 2 s

forces forces write:
    Sum of forces
        Total    : (0 0 0)
        Pressure : (0 0 0)
        Viscous  : (0 0 0)
    Sum of moments
        Total    : (0 0 0)
        Pressure : (0 0 0)
        Viscous  : (0 0 0)


forceCoeffs forceCoeffs execute:
    Coefficients
        Cd       : 0	(pressure: 0	viscous: 0)
        Cs       : 0	(pressure: 0	viscous: 0)
        Cl       : 0	(pressure: 0	viscous: 0)
        CmRoll       : 0	(pressure: 0	viscous: 0)
        CmPitch       : 0	(pressure: 0	viscous: 0)
        CmYaw       : 0	(pressure: 0	viscous: 0)
        Cd(f)    : 0
        Cd(r)    : 0
        Cs(f)    : 0
        Cs(r)    : 0
        Cl(f)    : 0
        Cl(r)    : 0
Courant Number mean: 0.0005680305150585287 max: 0.999667614336095
deltaT = 0.0002564102564102564
Time = 0.00128205

PIMPLE: iteration 1
GAMG:  Solving for p, Initial residual = 0.00952727561238096, Final residual = 8.195583029351543e-09, No Iterations 13
time step continuity errors : sum local = 2.364029663175907e-18, global = -1.134211473174748e-18, cumulative = -3.973905920806643e-18
ExecutionTime = 0.92 s  ClockTime = 2 s

forces forces write:
    Sum of forces
        Total    : (0 0 0)
        Pressure : (0 0 0)
        Viscous  : (0 0 0)
    Sum of moments
        Total    : (0 0 0)
        Pressure : (0 0 0)
        Viscous  : (0 0 0)


forceCoeffs forceCoeffs execute:
    Coefficients
        Cd       : 0	(pressure: 0	viscous: 0)
        Cs       : 0	(pressure: 0	viscous: 0)
        Cl       : 0	(pressure: 0	viscous: 0)
        CmRoll       : 0	(pressure: 0	viscous: 0)
        CmPitch       : 0	(pressure: 0	viscous: 0)
        CmYaw       : 0	(pressure: 0	viscous: 0)
        Cd(f)    : 0
        Cd(r)    : 0
        Cs(f)    : 0
        Cs(r)    : 0
        Cl(f)    : 0
        Cl(r)    : 0
Courant Number mean: 0.0005680304311883654 max: 0.9996713538303266
deltaT = 0.0002564102564102564
Time = 0.00153846

PIMPLE: iteration 1
GAMG:  Solving for p, Initial residual = 0.009463136788034876, Final residual = 7.604234140196326e-09, No Iterations 13
time step continuity errors : sum local = 2.208464651573513e-18, global = -1.059774530038155e-18, cumulative = -5.033680450844797e-18
ExecutionTime = 1.04 s  ClockTime = 2 s

forces forces write:
    Sum of forces
        Total    : (0 0 0)
        Pressure : (0 0 0)
        Viscous  : (0 0 0)
    Sum of moments
        Total    : (0 0 0)
        Pressure : (0 0 0)
        Viscous  : (0 0 0)


forceCoeffs forceCoeffs execute:
    Coefficients
        Cd       : 0	(pressure: 0	viscous: 0)
        Cs       : 0	(pressure: 0	viscous: 0)
        Cl       : 0	(pressure: 0	viscous: 0)
        CmRoll       : 0	(pressure: 0	viscous: 0)
        CmPitch       : 0	(pressure: 0	viscous: 0)
        CmYaw       : 0	(pressure: 0	viscous: 0)
        Cd(f)    : 0
        Cd(r)    : 0
        Cs(f)    : 0
        Cs(r)    : 0
        Cl(f)    : 0
        Cl(r)    : 0
Courant Number mean: 0.0005680303486259641 max: 0.9996749257282347
deltaT = 0.0002564102564102564
Time = 0.00179487

PIMPLE: iteration 1
GAMG:  Solving for p, Initial residual = 0.008944434922895855, Final residual = 7.734810676214306e-09, No Iterations 13
time step continuity errors : sum local = 2.260092288011226e-18, global = -1.087434627491827e-18, cumulative = -6.121115078336624e-18
ExecutionTime = 1.16 s  ClockTime = 2 s

forces forces write:
    Sum of forces
        Total    : (0 0 0)
        Pressure : (0 0 0)
        Viscous  : (0 0 0)
    Sum of moments
        Total    : (0 0 0)
        Pressure : (0 0 0)
        Viscous  : (0 0 0)


forceCoeffs forceCoeffs execute:
    Coefficients
        Cd       : 0	(pressure: 0	viscous: 0)
        Cs       : 0	(pressure: 0	viscous: 0)
        Cl       : 0	(pressure: 0	viscous: 0)
        CmRoll       : 0	(pressure: 0	viscous: 0)
        CmPitch       : 0	(pressure: 0	viscous: 0)
        CmYaw       : 0	(pressure: 0	viscous: 0)
        Cd(f)    : 0
        Cd(r)    : 0
        Cs(f)    : 0
        Cs(r)    : 0
        Cl(f)    : 0
        Cl(r)    : 0
Courant Number mean: 0.0005680302673033143 max: 0.9996785990516357
deltaT = 0.0002564102564102564
Time = 0.00205128

PIMPLE: iteration 1
GAMG:  Solving for p, Initial residual = 0.008465756970477918, Final residual = 7.52683571946899e-09, No Iterations 13
time step continuity errors : sum local = 2.216492440376664e-18, global = -1.063554065867242e-18, cumulative = -7.184669144203867e-18
ExecutionTime = 1.28 s  ClockTime = 2 s

forces forces write:
    Sum of forces
        Total    : (0 0 0)
        Pressure : (0 0 0)
        Viscous  : (0 0 0)
    Sum of moments
        Total    : (0 0 0)
        Pressure : (0 0 0)
        Viscous  : (0 0 0)


forceCoeffs forceCoeffs execute:
    Coefficients
        Cd       : 0	(pressure: 0	viscous: 0)
        Cs       : 0	(pressure: 0	viscous: 0)
        Cl       : 0	(pressure: 0	viscous: 0)
        CmRoll       : 0	(pressure: 0	viscous: 0)
        CmPitch       : 0	(pressure: 0	viscous: 0)
        CmYaw       : 0	(pressure: 0	viscous: 0)
        Cd(f)    : 0
        Cd(r)    : 0
        Cs(f)    : 0
        Cs(r)    : 0
        Cl(f)    : 0
        Cl(r)    : 0
Courant Number mean: 0.00056803018715498 max: 0.9996821837323527
deltaT = 0.0002564102564102564
Time = 0.00230769

PIMPLE: iteration 1
GAMG:  Solving for p, Initial residual = 0.008216299916941418, Final residual = 7.08147200590928e-09, No Iterations 13
time step continuity errors : sum local = 2.098430278187078e-18, global = -1.009484958765434e-18, cumulative = -8.194154102969302e-18
ExecutionTime = 1.38 s  ClockTime = 2 s

forces forces write:
    Sum of forces
        Total    : (0 0 0)
        Pressure : (0 0 0)
        Viscous  : (0 0 0)
    Sum of moments
        Total    : (0 0 0)
        Pressure : (0 0 0)
        Viscous  : (0 0 0)


forceCoeffs forceCoeffs execute:
    Coefficients
        Cd       : 0	(pressure: 0	viscous: 0)
        Cs       : 0	(pressure: 0	viscous: 0)
        Cl       : 0	(pressure: 0	viscous: 0)
        CmRoll       : 0	(pressure: 0	viscous: 0)
        CmPitch       : 0	(pressure: 0	viscous: 0)
        CmYaw       : 0	(pressure: 0	viscous: 0)
        Cd(f)    : 0
        Cd(r)    : 0
        Cs(f)    : 0
        Cs(r)    : 0
        Cl(f)    : 0
        Cl(r)    : 0
Courant Number mean: 0.0005680301081101183 max: 0.9996857691922608
deltaT = 0.0002564102564102565
Time = 0.0025641

PIMPLE: iteration 1
GAMG:  Solving for p, Initial residual = 0.008039696912999994, Final residual = 6.11236250399901e-09, No Iterations 13
time step continuity errors : sum local = 1.825131747326036e-18, global = -9.571343664846054e-19, cumulative = -9.151288469453907e-18
ExecutionTime = 1.51 s  ClockTime = 2 s

forces forces write:
    Sum of forces
        Total    : (0 0 0)
        Pressure : (0 0 0)
        Viscous  : (0 0 0)
    Sum of moments
        Total    : (0 0 0)
        Pressure : (0 0 0)
        Viscous  : (0 0 0)


forceCoeffs forceCoeffs execute:
    Coefficients
        Cd       : 0	(pressure: 0	viscous: 0)
        Cs       : 0	(pressure: 0	viscous: 0)
        Cl       : 0	(pressure: 0	viscous: 0)
        CmRoll       : 0	(pressure: 0	viscous: 0)
        CmPitch       : 0	(pressure: 0	viscous: 0)
        CmYaw       : 0	(pressure: 0	viscous: 0)
        Cd(f)    : 0
        Cd(r)    : 0
        Cs(f)    : 0
        Cs(r)    : 0
        Cl(f)    : 0
        Cl(r)    : 0
Courant Number mean: 0.0005680300301059604 max: 0.9996893310738114
deltaT = 0.0002564102564102564
Time = 0.00282051

PIMPLE: iteration 1
GAMG:  Solving for p, Initial residual = 0.007858225485787603, Final residual = 5.776877020209041e-09, No Iterations 13
time step continuity errors : sum local = 1.739230464682713e-18, global = -8.50020239983049e-19, cumulative = -1.000130870943696e-17
ExecutionTime = 1.63 s  ClockTime = 2 s

forces forces write:
    Sum of forces
        Total    : (0 0 0)
        Pressure : (0 0 0)
        Viscous  : (0 0 0)
    Sum of moments
        Total    : (0 0 0)
        Pressure : (0 0 0)
        Viscous  : (0 0 0)


forceCoeffs forceCoeffs execute:
    Coefficients
        Cd       : 0	(pressure: 0	viscous: 0)
        Cs       : 0	(pressure: 0	viscous: 0)
        Cl       : 0	(pressure: 0	viscous: 0)
        CmRoll       : 0	(pressure: 0	viscous: 0)
        CmPitch       : 0	(pressure: 0	viscous: 0)
        CmYaw       : 0	(pressure: 0	viscous: 0)
        Cd(f)    : 0
        Cd(r)    : 0
        Cs(f)    : 0
        Cs(r)    : 0
        Cl(f)    : 0
        Cl(r)    : 0
Courant Number mean: 0.0005680299530858691 max: 0.9996928241876842
deltaT = 0.0002564102564102564
Time = 0.00307692

PIMPLE: iteration 1
GAMG:  Solving for p, Initial residual = 0.007436628429293262, Final residual = 6.18712968718057e-09, No Iterations 13
time step continuity errors : sum local = 1.874027190637279e-18, global = -9.001093612831652e-19, cumulative = -1.090141807072012e-17
ExecutionTime = 1.74 s  ClockTime = 3 s

forces forces write:
    Sum of forces
        Total    : (0 0 0)
        Pressure : (0 0 0)
        Viscous  : (0 0 0)
    Sum of moments
        Total    : (0 0 0)
        Pressure : (0 0 0)
        Viscous  : (0 0 0)


forceCoeffs forceCoeffs execute:
    Coefficients
        Cd       : 0	(pressure: 0	viscous: 0)
        Cs       : 0	(pressure: 0	viscous: 0)
        Cl       : 0	(pressure: 0	viscous: 0)
        CmRoll       : 0	(pressure: 0	viscous: 0)
        CmPitch       : 0	(pressure: 0	viscous: 0)
        CmYaw       : 0	(pressure: 0	viscous: 0)
        Cd(f)    : 0
        Cd(r)    : 0
        Cs(f)    : 0
        Cs(r)    : 0
        Cl(f)    : 0
        Cl(r)    : 0
Courant Number mean: 0.0005680298770153485 max: 0.999696361410756
deltaT = 0.0002564102564102564
Time = 0.00333333

PIMPLE: iteration 1
GAMG:  Solving for p, Initial residual = 0.007412156780062871, Final residual = 5.310322328649301e-09, No Iterations 13
time step continuity errors : sum local = 1.620075256866375e-18, global = -7.880230363225328e-19, cumulative = -1.168944110704265e-17
ExecutionTime = 1.85 s  ClockTime = 3 s

forces forces write:
    Sum of forces
        Total    : (0 0 0)
        Pressure : (0 0 0)
        Viscous  : (0 0 0)
    Sum of moments
        Total    : (0 0 0)
        Pressure : (0 0 0)
        Viscous  : (0 0 0)


forceCoeffs forceCoeffs execute:
    Coefficients
        Cd       : 0	(pressure: 0	viscous: 0)
        Cs       : 0	(pressure: 0	viscous: 0)
        Cl       : 0	(pressure: 0	viscous: 0)
        CmRoll       : 0	(pressure: 0	viscous: 0)
        CmPitch       : 0	(pressure: 0	viscous: 0)
        CmYaw       : 0	(pressure: 0	viscous: 0)
        Cd(f)    : 0
        Cd(r)    : 0
        Cs(f)    : 0
        Cs(r)    : 0
        Cl(f)    : 0
        Cl(r)    : 0
Courant Number mean: 0.0005680298018288436 max: 0.9996998801502367
deltaT = 0.0002564102564102565
Time = 0.00358974

PIMPLE: iteration 1
GAMG:  Solving for p, Initial residual = 0.006722230838514611, Final residual = 5.715839449069771e-09, No Iterations 13
time step continuity errors : sum local = 1.753023940826705e-18, global = -8.469732776434787e-19, cumulative = -1.253641438468613e-17
ExecutionTime = 1.98 s  ClockTime = 3 s

forces forces write:
    Sum of forces
        Total    : (0 0 0)
        Pressure : (0 0 0)
        Viscous  : (0 0 0)
    Sum of moments
        Total    : (0 0 0)
        Pressure : (0 0 0)
        Viscous  : (0 0 0)


forceCoeffs forceCoeffs execute:
    Coefficients
        Cd       : 0	(pressure: 0	viscous: 0)
        Cs       : 0	(pressure: 0	viscous: 0)
        Cl       : 0	(pressure: 0	viscous: 0)
        CmRoll       : 0	(pressure: 0	viscous: 0)
        CmPitch       : 0	(pressure: 0	viscous: 0)
        CmYaw       : 0	(pressure: 0	viscous: 0)
        Cd(f)    : 0
        Cd(r)    : 0
        Cs(f)    : 0
        Cs(r)    : 0
        Cl(f)    : 0
        Cl(r)    : 0
Courant Number mean: 0.000568029727506007 max: 0.9997033817714059
deltaT = 0.0002564102564102564
Time = 0.00384615

PIMPLE: iteration 1
GAMG:  Solving for p, Initial residual = 0.006772122875813947, Final residual = 4.549785500483038e-09, No Iterations 13
time step continuity errors : sum local = 1.40583385152685e-18, global = -7.403876358652409e-19, cumulative = -1.327680202055137e-17
ExecutionTime = 2.1 s  ClockTime = 3 s

forces forces write:
    Sum of forces
        Total    : (0 0 0)
        Pressure : (0 0 0)
        Viscous  : (0 0 0)
    Sum of moments
        Total    : (0 0 0)
        Pressure : (0 0 0)
        Viscous  : (0 0 0)


forceCoeffs forceCoeffs execute:
    Coefficients
        Cd       : 0	(pressure: 0	viscous: 0)
        Cs       : 0	(pressure: 0	viscous: 0)
        Cl       : 0	(pressure: 0	viscous: 0)
        CmRoll       : 0	(pressure: 0	viscous: 0)
        CmPitch       : 0	(pressure: 0	viscous: 0)
        CmYaw       : 0	(pressure: 0	viscous: 0)
        Cd(f)    : 0
        Cd(r)    : 0
        Cs(f)    : 0
        Cs(r)    : 0
        Cl(f)    : 0
        Cl(r)    : 0
Courant Number mean: 0.0005680296539859401 max: 0.9997068598684097
deltaT = 0.0002564102564102564
Time = 0.00410256

PIMPLE: iteration 1
GAMG:  Solving for p, Initial residual = 0.006588132711908362, Final residual = 4.77505152853668e-09, No Iterations 13
time step continuity errors : sum local = 1.484805280828482e-18, global = -7.108680810890082e-19, cumulative = -1.398767010164038e-17
ExecutionTime = 2.22 s  ClockTime = 3 s

forces forces write:
    Sum of forces
        Total    : (0 0 0)
        Pressure : (0 0 0)
        Viscous  : (0 0 0)
    Sum of moments
        Total    : (0 0 0)
        Pressure : (0 0 0)
        Viscous  : (0 0 0)


forceCoeffs forceCoeffs execute:
    Coefficients
        Cd       : 0	(pressure: 0	viscous: 0)
        Cs       : 0	(pressure: 0	viscous: 0)
        Cl       : 0	(pressure: 0	viscous: 0)
        CmRoll       : 0	(pressure: 0	viscous: 0)
        CmPitch       : 0	(pressure: 0	viscous: 0)
        CmYaw       : 0	(pressure: 0	viscous: 0)
        Cd(f)    : 0
        Cd(r)    : 0
        Cs(f)    : 0
        Cs(r)    : 0
        Cl(f)    : 0
        Cl(r)    : 0
Courant Number mean: 0.000568029581257405 max: 0.9997103384571726
deltaT = 0.0002564102564102564
Time = 0.00435897

PIMPLE: iteration 1
GAMG:  Solving for p, Initial residual = 0.006569213798847352, Final residual = 7.049309574808766e-09, No Iterations 12
time step continuity errors : sum local = 2.19802620673475e-18, global = 8.992083966321214e-19, cumulative = -1.308846170500826e-17
ExecutionTime = 2.33 s  ClockTime = 3 s

forces forces write:
    Sum of forces
        Total    : (0 0 0)
        Pressure : (0 0 0)
        Viscous  : (0 0 0)
    Sum of moments
        Total    : (0 0 0)
        Pressure : (0 0 0)
        Viscous  : (0 0 0)


forceCoeffs forceCoeffs execute:
    Coefficients
        Cd       : 0	(pressure: 0	viscous: 0)
        Cs       : 0	(pressure: 0	viscous: 0)
        Cl       : 0	(pressure: 0	viscous: 0)
        CmRoll       : 0	(pressure: 0	viscous: 0)
        CmPitch       : 0	(pressure: 0	viscous: 0)
        CmYaw       : 0	(pressure: 0	viscous: 0)
        Cd(f)    : 0
        Cd(r)    : 0
        Cs(f)    : 0
        Cs(r)    : 0
        Cl(f)    : 0
        Cl(r)    : 0
Courant Number mean: 0.0005680295092388672 max: 0.9997138234550357
deltaT = 0.0002564102564102564
Time = 0.00461538

PIMPLE: iteration 1
GAMG:  Solving for p, Initial residual = 0.005918639622960651, Final residual = 4.650900656200937e-09, No Iterations 13
time step continuity errors : sum local = 1.458981333709749e-18, global = -7.293156192942417e-19, cumulative = -1.38177773243025e-17
ExecutionTime = 2.46 s  ClockTime = 3 s

forces forces write:
    Sum of forces
        Total    : (0 0 0)
        Pressure : (0 0 0)
        Viscous  : (0 0 0)
    Sum of moments
        Total    : (0 0 0)
        Pressure : (0 0 0)
        Viscous  : (0 0 0)


forceCoeffs forceCoeffs execute:
    Coefficients
        Cd       : 0	(pressure: 0	viscous: 0)
        Cs       : 0	(pressure: 0	viscous: 0)
        Cl       : 0	(pressure: 0	viscous: 0)
        CmRoll       : 0	(pressure: 0	viscous: 0)
        CmPitch       : 0	(pressure: 0	viscous: 0)
        CmYaw       : 0	(pressure: 0	viscous: 0)
        Cd(f)    : 0
        Cd(r)    : 0
        Cs(f)    : 0
        Cs(r)    : 0
        Cl(f)    : 0
        Cl(r)    : 0
Courant Number mean: 0.0005680294379417256 max: 0.9997172551047201
deltaT = 0.0002564102564102564
Time = 0.00487179

PIMPLE: iteration 1
GAMG:  Solving for p, Initial residual = 0.005828860992116274, Final residual = 4.808003187298264e-09, No Iterations 13
time step continuity errors : sum local = 1.516652634689889e-18, global = -7.343845542869302e-19, cumulative = -1.455216187858943e-17
ExecutionTime = 2.57 s  ClockTime = 3 s

forces forces write:
    Sum of forces
        Total    : (0 0 0)
        Pressure : (0 0 0)
        Viscous  : (0 0 0)
    Sum of moments
        Total    : (0 0 0)
        Pressure : (0 0 0)
        Viscous  : (0 0 0)


forceCoeffs forceCoeffs execute:
    Coefficients
        Cd       : 0	(pressure: 0	viscous: 0)
        Cs       : 0	(pressure: 0	viscous: 0)
        Cl       : 0	(pressure: 0	viscous: 0)
        CmRoll       : 0	(pressure: 0	viscous: 0)
        CmPitch       : 0	(pressure: 0	viscous: 0)
        CmYaw       : 0	(pressure: 0	viscous: 0)
        Cd(f)    : 0
        Cd(r)    : 0
        Cs(f)    : 0
        Cs(r)    : 0
        Cl(f)    : 0
        Cl(r)    : 0
Courant Number mean: 0.0005680293673134545 max: 0.9997205949550754
deltaT = 0.0002564102564102564
Time = 0.00512821

PIMPLE: iteration 1
GAMG:  Solving for p, Initial residual = 0.005569004377171207, Final residual = 4.490582443957448e-09, No Iterations 13
time step continuity errors : sum local = 1.424692979221103e-18, global = -6.878363733180587e-19, cumulative = -1.523999825190749e-17
ExecutionTime = 2.71 s  ClockTime = 4 s

forces forces write:
    Sum of forces
        Total    : (0 0 0)
        Pressure : (0 0 0)
        Viscous  : (0 0 0)
    Sum of moments
        Total    : (0 0 0)
        Pressure : (0 0 0)
        Viscous  : (0 0 0)


forceCoeffs forceCoeffs execute:
    Coefficients
        Cd       : 0	(pressure: 0	viscous: 0)
        Cs       : 0	(pressure: 0	viscous: 0)
        Cl       : 0	(pressure: 0	viscous: 0)
        CmRoll       : 0	(pressure: 0	viscous: 0)
        CmPitch       : 0	(pressure: 0	viscous: 0)
        CmYaw       : 0	(pressure: 0	viscous: 0)
        Cd(f)    : 0
        Cd(r)    : 0
        Cs(f)    : 0
        Cs(r)    : 0
        Cl(f)    : 0
        Cl(r)    : 0
Courant Number mean: 0.0005680292973461035 max: 0.9997239251584241
deltaT = 0.0002564102564102564
Time = 0.00538462

PIMPLE: iteration 1
GAMG:  Solving for p, Initial residual = 0.005418924600249627, Final residual = 7.149849172067864e-09, No Iterations 12
time step continuity errors : sum local = 2.274112166369919e-18, global = 1.034280383591981e-18, cumulative = -1.420571786831551e-17
ExecutionTime = 2.82 s  ClockTime = 4 s

forces forces write:
    Sum of forces
        Total    : (0 0 0)
        Pressure : (0 0 0)
        Viscous  : (0 0 0)
    Sum of moments
        Total    : (0 0 0)
        Pressure : (0 0 0)
        Viscous  : (0 0 0)


forceCoeffs forceCoeffs execute:
    Coefficients
        Cd       : 0	(pressure: 0	viscous: 0)
        Cs       : 0	(pressure: 0	viscous: 0)
        Cl       : 0	(pressure: 0	viscous: 0)
        CmRoll       : 0	(pressure: 0	viscous: 0)
        CmPitch       : 0	(pressure: 0	viscous: 0)
        CmYaw       : 0	(pressure: 0	viscous: 0)
        Cd(f)    : 0
        Cd(r)    : 0
        Cs(f)    : 0
        Cs(r)    : 0
        Cl(f)    : 0
        Cl(r)    : 0
Courant Number mean: 0.0005680292279850703 max: 0.999727214798845
deltaT = 0.0002564102564102565
Time = 0.00564103

PIMPLE: iteration 1
GAMG:  Solving for p, Initial residual = 0.005169560579703266, Final residual = 8.059859905440872e-09, No Iterations 12
time step continuity errors : sum local = 2.576274865846733e-18, global = -1.317498546833018e-18, cumulative = -1.552321641514853e-17
ExecutionTime = 2.93 s  ClockTime = 4 s

forces forces write:
    Sum of forces
        Total    : (0 0 0)
        Pressure : (0 0 0)
        Viscous  : (0 0 0)
    Sum of moments
        Total    : (0 0 0)
        Pressure : (0 0 0)
        Viscous  : (0 0 0)


forceCoeffs forceCoeffs execute:
    Coefficients
        Cd       : 0	(pressure: 0	viscous: 0)
        Cs       : 0	(pressure: 0	viscous: 0)
        Cl       : 0	(pressure: 0	viscous: 0)
        CmRoll       : 0	(pressure: 0	viscous: 0)
        CmPitch       : 0	(pressure: 0	viscous: 0)
        CmYaw       : 0	(pressure: 0	viscous: 0)
        Cd(f)    : 0
        Cd(r)    : 0
        Cs(f)    : 0
        Cs(r)    : 0
        Cl(f)    : 0
        Cl(r)    : 0
Courant Number mean: 0.0005680291592185494 max: 0.9997305153865466
deltaT = 0.0002564102564102564
Time = 0.00589744

PIMPLE: iteration 1
GAMG:  Solving for p, Initial residual = 0.00520745504099881, Final residual = 9.605876676751194e-09, No Iterations 12
time step continuity errors : sum local = 3.080818661504457e-18, global = -1.500605997429376e-18, cumulative = -1.702382241257791e-17
ExecutionTime = 3.03 s  ClockTime = 4 s

forces forces write:
    Sum of forces
        Total    : (0 0 0)
        Pressure : (0 0 0)
        Viscous  : (0 0 0)
    Sum of moments
        Total    : (0 0 0)
        Pressure : (0 0 0)
        Viscous  : (0 0 0)


forceCoeffs forceCoeffs execute:
    Coefficients
        Cd       : 0	(pressure: 0	viscous: 0)
        Cs       : 0	(pressure: 0	viscous: 0)
        Cl       : 0	(pressure: 0	viscous: 0)
        CmRoll       : 0	(pressure: 0	viscous: 0)
        CmPitch       : 0	(pressure: 0	viscous: 0)
        CmYaw       : 0	(pressure: 0	viscous: 0)
        Cd(f)    : 0
        Cd(r)    : 0
        Cs(f)    : 0
        Cs(r)    : 0
        Cl(f)    : 0
        Cl(r)    : 0
Courant Number mean: 0.0005680290910601331 max: 0.9997338233856436
deltaT = 0.0002564102564102564
Time = 0.00615385

PIMPLE: iteration 1
GAMG:  Solving for p, Initial residual = 0.005168100843095806, Final residual = 9.736771785411247e-09, No Iterations 12
time step continuity errors : sum local = 3.136988138838724e-18, global = 1.572392784357308e-18, cumulative = -1.54514296282206e-17
ExecutionTime = 3.15 s  ClockTime = 4 s

forces forces write:
    Sum of forces
        Total    : (0 0 0)
        Pressure : (0 0 0)
        Viscous  : (0 0 0)
    Sum of moments
        Total    : (0 0 0)
        Pressure : (0 0 0)
        Viscous  : (0 0 0)


forceCoeffs forceCoeffs execute:
    Coefficients
        Cd       : 0	(pressure: 0	viscous: 0)
        Cs       : 0	(pressure: 0	viscous: 0)
        Cl       : 0	(pressure: 0	viscous: 0)
        CmRoll       : 0	(pressure: 0	viscous: 0)
        CmPitch       : 0	(pressure: 0	viscous: 0)
        CmYaw       : 0	(pressure: 0	viscous: 0)
        Cd(f)    : 0
        Cd(r)    : 0
        Cs(f)    : 0
        Cs(r)    : 0
        Cl(f)    : 0
        Cl(r)    : 0
Courant Number mean: 0.0005680290234031075 max: 0.9997370811446643
deltaT = 0.0002564102564102565
Time = 0.00641026

PIMPLE: iteration 1
GAMG:  Solving for p, Initial residual = 0.00589949601516288, Final residual = 9.598291927483486e-09, No Iterations 12
time step continuity errors : sum local = 3.108780933485311e-18, global = -1.527602504264824e-18, cumulative = -1.697903213248542e-17
ExecutionTime = 3.27 s  ClockTime = 4 s

forces forces write:
    Sum of forces
        Total    : (0 0 0)
        Pressure : (0 0 0)
        Viscous  : (0 0 0)
    Sum of moments
        Total    : (0 0 0)
        Pressure : (0 0 0)
        Viscous  : (0 0 0)


forceCoeffs forceCoeffs execute:
    Coefficients
        Cd       : 0	(pressure: 0	viscous: 0)
        Cs       : 0	(pressure: 0	viscous: 0)
        Cl       : 0	(pressure: 0	viscous: 0)
        CmRoll       : 0	(pressure: 0	viscous: 0)
        CmPitch       : 0	(pressure: 0	viscous: 0)
        CmYaw       : 0	(pressure: 0	viscous: 0)
        Cd(f)    : 0
        Cd(r)    : 0
        Cs(f)    : 0
        Cs(r)    : 0
        Cl(f)    : 0
        Cl(r)    : 0
Courant Number mean: 0.0005680289563601595 max: 0.9997403670681356
deltaT = 0.0002564102564102564
Time = 0.00666667

PIMPLE: iteration 1
GAMG:  Solving for p, Initial residual = 0.004902203597878511, Final residual = 9.960349966149786e-09, No Iterations 12
time step continuity errors : sum local = 3.242355500093385e-18, global = 1.592948242816904e-18, cumulative = -1.538608388966852e-17
ExecutionTime = 3.36 s  ClockTime = 4 s

forces forces write:
    Sum of forces
        Total    : (0 0 0)
        Pressure : (0 0 0)
        Viscous  : (0 0 0)
    Sum of moments
        Total    : (0 0 0)
        Pressure : (0 0 0)
        Viscous  : (0 0 0)


forceCoeffs forceCoeffs execute:
    Coefficients
        Cd       : 0	(pressure: 0	viscous: 0)
        Cs       : 0	(pressure: 0	viscous: 0)
        Cl       : 0	(pressure: 0	viscous: 0)
        CmRoll       : 0	(pressure: 0	viscous: 0)
        CmPitch       : 0	(pressure: 0	viscous: 0)
        CmYaw       : 0	(pressure: 0	viscous: 0)
        Cd(f)    : 0
        Cd(r)    : 0
        Cs(f)    : 0
        Cs(r)    : 0
        Cl(f)    : 0
        Cl(r)    : 0
Courant Number mean: 0.0005680288897695947 max: 0.9997436272209278
deltaT = 0.0002564102564102564
Time = 0.00692308

PIMPLE: iteration 1
GAMG:  Solving for p, Initial residual = 0.004788219239593744, Final residual = 7.568846878770918e-09, No Iterations 12
time step continuity errors : sum local = 2.477069189658683e-18, global = -1.265951020343747e-18, cumulative = -1.665203491001226e-17
ExecutionTime = 3.48 s  ClockTime = 4 s

forces forces write:
    Sum of forces
        Total    : (0 0 0)
        Pressure : (0 0 0)
        Viscous  : (0 0 0)
    Sum of moments
        Total    : (0 0 0)
        Pressure : (0 0 0)
        Viscous  : (0 0 0)


forceCoeffs forceCoeffs execute:
    Coefficients
        Cd       : 0	(pressure: 0	viscous: 0)
        Cs       : 0	(pressure: 0	viscous: 0)
        Cl       : 0	(pressure: 0	viscous: 0)
        CmRoll       : 0	(pressure: 0	viscous: 0)
        CmPitch       : 0	(pressure: 0	viscous: 0)
        CmYaw       : 0	(pressure: 0	viscous: 0)
        Cd(f)    : 0
        Cd(r)    : 0
        Cs(f)    : 0
        Cs(r)    : 0
        Cl(f)    : 0
        Cl(r)    : 0
Courant Number mean: 0.0005680288236459892 max: 0.9997468257692603
deltaT = 0.0002564102564102564
Time = 0.00717949

PIMPLE: iteration 1
GAMG:  Solving for p, Initial residual = 0.004881577753285075, Final residual = 5.998128127795679e-09, No Iterations 12
time step continuity errors : sum local = 1.973987966797247e-18, global = -8.32396274757425e-19, cumulative = -1.748443118476969e-17
ExecutionTime = 3.61 s  ClockTime = 4 s

forces forces write:
    Sum of forces
        Total    : (0 0 0)
        Pressure : (0 0 0)
        Viscous  : (0 0 0)
    Sum of moments
        Total    : (0 0 0)
        Pressure : (0 0 0)
        Viscous  : (0 0 0)


forceCoeffs forceCoeffs execute:
    Coefficients
        Cd       : 0	(pressure: 0	viscous: 0)
        Cs       : 0	(pressure: 0	viscous: 0)
        Cl       : 0	(pressure: 0	viscous: 0)
        CmRoll       : 0	(pressure: 0	viscous: 0)
        CmPitch       : 0	(pressure: 0	viscous: 0)
        CmYaw       : 0	(pressure: 0	viscous: 0)
        Cd(f)    : 0
        Cd(r)    : 0
        Cs(f)    : 0
        Cs(r)    : 0
        Cl(f)    : 0
        Cl(r)    : 0
Courant Number mean: 0.0005680287580023077 max: 0.9997500387105939
deltaT = 0.0002564102564102565
Time = 0.0074359

PIMPLE: iteration 1
GAMG:  Solving for p, Initial residual = 0.004547919704997321, Final residual = 4.462128333226501e-09, No Iterations 13
time step continuity errors : sum local = 1.474013128300392e-18, global = 7.084785762430104e-19, cumulative = -1.677595260852668e-17
ExecutionTime = 3.69 s  ClockTime = 5 s

forces forces write:
    Sum of forces
        Total    : (0 0 0)
        Pressure : (0 0 0)
        Viscous  : (0 0 0)
    Sum of moments
        Total    : (0 0 0)
        Pressure : (0 0 0)
        Viscous  : (0 0 0)


forceCoeffs forceCoeffs execute:
    Coefficients
        Cd       : 0	(pressure: 0	viscous: 0)
        Cs       : 0	(pressure: 0	viscous: 0)
        Cl       : 0	(pressure: 0	viscous: 0)
        CmRoll       : 0	(pressure: 0	viscous: 0)
        CmPitch       : 0	(pressure: 0	viscous: 0)
        CmYaw       : 0	(pressure: 0	viscous: 0)
        Cd(f)    : 0
        Cd(r)    : 0
        Cs(f)    : 0
        Cs(r)    : 0
        Cl(f)    : 0
        Cl(r)    : 0
Courant Number mean: 0.0005680286927441776 max: 0.9997532363069225
deltaT = 0.0002564102564102565
Time = 0.00769231

PIMPLE: iteration 1
GAMG:  Solving for p, Initial residual = 0.004206149984463958, Final residual = 6.911609751734658e-09, No Iterations 12
time step continuity errors : sum local = 2.2911130422777e-18, global = 1.152224583017388e-18, cumulative = -1.562372802550929e-17
ExecutionTime = 3.82 s  ClockTime = 5 s

forces forces write:
    Sum of forces
        Total    : (0 0 0)
        Pressure : (0 0 0)
        Viscous  : (0 0 0)
    Sum of moments
        Total    : (0 0 0)
        Pressure : (0 0 0)
        Viscous  : (0 0 0)


forceCoeffs forceCoeffs execute:
    Coefficients
        Cd       : 0	(pressure: 0	viscous: 0)
        Cs       : 0	(pressure: 0	viscous: 0)
        Cl       : 0	(pressure: 0	viscous: 0)
        CmRoll       : 0	(pressure: 0	viscous: 0)
        CmPitch       : 0	(pressure: 0	viscous: 0)
        CmYaw       : 0	(pressure: 0	viscous: 0)
        Cd(f)    : 0
        Cd(r)    : 0
        Cs(f)    : 0
        Cs(r)    : 0
        Cl(f)    : 0
        Cl(r)    : 0
Courant Number mean: 0.0005680286279003424 max: 0.9997563708125133
deltaT = 0.0002564102564102564
Time = 0.00794872

PIMPLE: iteration 1
GAMG:  Solving for p, Initial residual = 0.004501965838349516, Final residual = 7.583683928702946e-09, No Iterations 12
time step continuity errors : sum local = 2.522957217391627e-18, global = -1.282641664703556e-18, cumulative = -1.690636969021285e-17
ExecutionTime = 3.92 s  ClockTime = 5 s

forces forces write:
    Sum of forces
        Total    : (0 0 0)
        Pressure : (0 0 0)
        Viscous  : (0 0 0)
    Sum of moments
        Total    : (0 0 0)
        Pressure : (0 0 0)
        Viscous  : (0 0 0)


forceCoeffs forceCoeffs execute:
    Coefficients
        Cd       : 0	(pressure: 0	viscous: 0)
        Cs       : 0	(pressure: 0	viscous: 0)
        Cl       : 0	(pressure: 0	viscous: 0)
        CmRoll       : 0	(pressure: 0	viscous: 0)
        CmPitch       : 0	(pressure: 0	viscous: 0)
        CmYaw       : 0	(pressure: 0	viscous: 0)
        Cd(f)    : 0
        Cd(r)    : 0
        Cs(f)    : 0
        Cs(r)    : 0
        Cl(f)    : 0
        Cl(r)    : 0
Courant Number mean: 0.0005680285635409028 max: 0.9997595071989148
deltaT = 0.0002564102564102564
Time = 0.00820513

PIMPLE: iteration 1
GAMG:  Solving for p, Initial residual = 0.004279184599564552, Final residual = 4.694922584558582e-09, No Iterations 13
time step continuity errors : sum local = 1.572060994662326e-18, global = 7.5323140157987e-19, cumulative = -1.615313828863298e-17
ExecutionTime = 4.02 s  ClockTime = 5 s

forces forces write:
    Sum of forces
        Total    : (0 0 0)
        Pressure : (0 0 0)
        Viscous  : (0 0 0)
    Sum of moments
        Total    : (0 0 0)
        Pressure : (0 0 0)
        Viscous  : (0 0 0)


forceCoeffs forceCoeffs execute:
    Coefficients
        Cd       : 0	(pressure: 0	viscous: 0)
        Cs       : 0	(pressure: 0	viscous: 0)
        Cl       : 0	(pressure: 0	viscous: 0)
        CmRoll       : 0	(pressure: 0	viscous: 0)
        CmPitch       : 0	(pressure: 0	viscous: 0)
        CmYaw       : 0	(pressure: 0	viscous: 0)
        Cd(f)    : 0
        Cd(r)    : 0
        Cs(f)    : 0
        Cs(r)    : 0
        Cl(f)    : 0
        Cl(r)    : 0
Courant Number mean: 0.0005680284995340623 max: 0.9997626008821769
deltaT = 0.0002564102564102565
Time = 0.00846154

PIMPLE: iteration 1
GAMG:  Solving for p, Initial residual = 0.003925107153242318, Final residual = 7.006509198226101e-09, No Iterations 12
time step continuity errors : sum local = 2.349243858518335e-18, global = 1.166113417649235e-18, cumulative = -1.498702487098374e-17
ExecutionTime = 4.13 s  ClockTime = 5 s

forces forces write:
    Sum of forces
        Total    : (0 0 0)
        Pressure : (0 0 0)
        Viscous  : (0 0 0)
    Sum of moments
        Total    : (0 0 0)
        Pressure : (0 0 0)
        Viscous  : (0 0 0)


forceCoeffs forceCoeffs execute:
    Coefficients
        Cd       : 0	(pressure: 0	viscous: 0)
        Cs       : 0	(pressure: 0	viscous: 0)
        Cl       : 0	(pressure: 0	viscous: 0)
        CmRoll       : 0	(pressure: 0	viscous: 0)
        CmPitch       : 0	(pressure: 0	viscous: 0)
        CmYaw       : 0	(pressure: 0	viscous: 0)
        Cd(f)    : 0
        Cd(r)    : 0
        Cs(f)    : 0
        Cs(r)    : 0
        Cl(f)    : 0
        Cl(r)    : 0
Courant Number mean: 0.0005680284358758565 max: 0.9997658466242777
deltaT = 0.0002564102564102564
Time = 0.00871795

PIMPLE: iteration 1
GAMG:  Solving for p, Initial residual = 0.00365308850651838, Final residual = 5.117964057753046e-09, No Iterations 12
time step continuity errors : sum local = 1.731184590841745e-18, global = 3.663002131005962e-19, cumulative = -1.462072465788315e-17
ExecutionTime = 4.26 s  ClockTime = 5 s

forces forces write:
    Sum of forces
        Total    : (0 0 0)
        Pressure : (0 0 0)
        Viscous  : (0 0 0)
    Sum of moments
        Total    : (0 0 0)
        Pressure : (0 0 0)
        Viscous  : (0 0 0)


forceCoeffs forceCoeffs execute:
    Coefficients
        Cd       : 0	(pressure: 0	viscous: 0)
        Cs       : 0	(pressure: 0	viscous: 0)
        Cl       : 0	(pressure: 0	viscous: 0)
        CmRoll       : 0	(pressure: 0	viscous: 0)
        CmPitch       : 0	(pressure: 0	viscous: 0)
        CmYaw       : 0	(pressure: 0	viscous: 0)
        Cd(f)    : 0
        Cd(r)    : 0
        Cs(f)    : 0
        Cs(r)    : 0
        Cl(f)    : 0
        Cl(r)    : 0
Courant Number mean: 0.0005680283725736519 max: 0.9997689980692089
deltaT = 0.0002564102564102564
Time = 0.00897436

PIMPLE: iteration 1
GAMG:  Solving for p, Initial residual = 0.00367172019825474, Final residual = 5.175593407062606e-09, No Iterations 12
time step continuity errors : sum local = 1.754701520528806e-18, global = 4.573991417384865e-19, cumulative = -1.416332551614466e-17
ExecutionTime = 4.37 s  ClockTime = 5 s

forces forces write:
    Sum of forces
        Total    : (0 0 0)
        Pressure : (0 0 0)
        Viscous  : (0 0 0)
    Sum of moments
        Total    : (0 0 0)
        Pressure : (0 0 0)
        Viscous  : (0 0 0)


forceCoeffs forceCoeffs execute:
    Coefficients
        Cd       : 0	(pressure: 0	viscous: 0)
        Cs       : 0	(pressure: 0	viscous: 0)
        Cl       : 0	(pressure: 0	viscous: 0)
        CmRoll       : 0	(pressure: 0	viscous: 0)
        CmPitch       : 0	(pressure: 0	viscous: 0)
        CmYaw       : 0	(pressure: 0	viscous: 0)
        Cd(f)    : 0
        Cd(r)    : 0
        Cs(f)    : 0
        Cs(r)    : 0
        Cl(f)    : 0
        Cl(r)    : 0
Courant Number mean: 0.000568028309618127 max: 0.9997721425427986
deltaT = 0.0002564102564102565
Time = 0.00923077

PIMPLE: iteration 1
GAMG:  Solving for p, Initial residual = 0.003652187625923854, Final residual = 5.825695408598949e-09, No Iterations 12
time step continuity errors : sum local = 1.977709742314614e-18, global = -9.274744022431658e-19, cumulative = -1.509079991838783e-17
ExecutionTime = 4.49 s  ClockTime = 5 s

forces forces write:
    Sum of forces
        Total    : (0 0 0)
        Pressure : (0 0 0)
        Viscous  : (0 0 0)
    Sum of moments
        Total    : (0 0 0)
        Pressure : (0 0 0)
        Viscous  : (0 0 0)


forceCoeffs forceCoeffs execute:
    Coefficients
        Cd       : 0	(pressure: 0	viscous: 0)
        Cs       : 0	(pressure: 0	viscous: 0)
        Cl       : 0	(pressure: 0	viscous: 0)
        CmRoll       : 0	(pressure: 0	viscous: 0)
        CmPitch       : 0	(pressure: 0	viscous: 0)
        CmYaw       : 0	(pressure: 0	viscous: 0)
        Cd(f)    : 0
        Cd(r)    : 0
        Cs(f)    : 0
        Cs(r)    : 0
        Cl(f)    : 0
        Cl(r)    : 0
Courant Number mean: 0.0005680282469998299 max: 0.999775189753159
deltaT = 0.0002564102564102565
Time = 0.00948718

PIMPLE: iteration 1
GAMG:  Solving for p, Initial residual = 0.004397490946166102, Final residual = 9.057522147505792e-09, No Iterations 12
time step continuity errors : sum local = 3.080819905157761e-18, global = -1.306970037651461e-18, cumulative = -1.639776995603929e-17
ExecutionTime = 4.6 s  ClockTime = 5 s

forces forces write:
    Sum of forces
        Total    : (0 0 0)
        Pressure : (0 0 0)
        Viscous  : (0 0 0)
    Sum of moments
        Total    : (0 0 0)
        Pressure : (0 0 0)
        Viscous  : (0 0 0)


forceCoeffs forceCoeffs execute:
    Coefficients
        Cd       : 0	(pressure: 0	viscous: 0)
        Cs       : 0	(pressure: 0	viscous: 0)
        Cl       : 0	(pressure: 0	viscous: 0)
        CmRoll       : 0	(pressure: 0	viscous: 0)
        CmPitch       : 0	(pressure: 0	viscous: 0)
        CmYaw       : 0	(pressure: 0	viscous: 0)
        Cd(f)    : 0
        Cd(r)    : 0
        Cs(f)    : 0
        Cs(r)    : 0
        Cl(f)    : 0
        Cl(r)    : 0
Courant Number mean: 0.0005680281848131489 max: 0.9997782353017585
deltaT = 0.0002564102564102565
Time = 0.00974359

PIMPLE: iteration 1
GAMG:  Solving for p, Initial residual = 0.003903104348093369, Final residual = 5.184493076137444e-09, No Iterations 13
time step continuity errors : sum local = 1.773129286509364e-18, global = 8.507409629813308e-19, cumulative = -1.554702899305796e-17
ExecutionTime = 4.71 s  ClockTime = 6 s

forces forces write:
    Sum of forces
        Total    : (0 0 0)
        Pressure : (0 0 0)
        Viscous  : (0 0 0)
    Sum of moments
        Total    : (0 0 0)
        Pressure : (0 0 0)
        Viscous  : (0 0 0)


forceCoeffs forceCoeffs execute:
    Coefficients
        Cd       : 0	(pressure: 0	viscous: 0)
        Cs       : 0	(pressure: 0	viscous: 0)
        Cl       : 0	(pressure: 0	viscous: 0)
        CmRoll       : 0	(pressure: 0	viscous: 0)
        CmPitch       : 0	(pressure: 0	viscous: 0)
        CmYaw       : 0	(pressure: 0	viscous: 0)
        Cd(f)    : 0
        Cd(r)    : 0
        Cs(f)    : 0
        Cs(r)    : 0
        Cl(f)    : 0
        Cl(r)    : 0
Courant Number mean: 0.0005680281228716018 max: 0.999781236161511
deltaT = 0.0002564102564102564
Time = 0.01

PIMPLE: iteration 1
GAMG:  Solving for p, Initial residual = 0.003315980665132316, Final residual = 4.728578993292834e-09, No Iterations 12
time step continuity errors : sum local = 1.624925072141938e-18, global = 7.848672740466934e-19, cumulative = -1.476216171901126e-17
ExecutionTime = 4.84 s  ClockTime = 6 s

forces forces write:
    Sum of forces
        Total    : (0 0 0)
        Pressure : (0 0 0)
        Viscous  : (0 0 0)
    Sum of moments
        Total    : (0 0 0)
        Pressure : (0 0 0)
        Viscous  : (0 0 0)


forceCoeffs forceCoeffs execute:
    Coefficients
        Cd       : 0	(pressure: 0	viscous: 0)
        Cs       : 0	(pressure: 0	viscous: 0)
        Cl       : 0	(pressure: 0	viscous: 0)
        CmRoll       : 0	(pressure: 0	viscous: 0)
        CmPitch       : 0	(pressure: 0	viscous: 0)
        CmYaw       : 0	(pressure: 0	viscous: 0)
        Cd(f)    : 0
        Cd(r)    : 0
        Cs(f)    : 0
        Cs(r)    : 0
        Cl(f)    : 0
        Cl(r)    : 0
Courant Number mean: 0.0005680280612257931 max: 0.9997841710126559
deltaT = 0.0002564102564102565
Time = 0.0102564

PIMPLE: iteration 1
GAMG:  Solving for p, Initial residual = 0.003404007802923167, Final residual = 9.167380905381578e-09, No Iterations 11
time step continuity errors : sum local = 3.15453189022315e-18, global = 6.943600935621913e-19, cumulative = -1.406780162544907e-17
ExecutionTime = 4.96 s  ClockTime = 6 s

forces forces write:
    Sum of forces
        Total    : (0 0 0)
        Pressure : (0 0 0)
        Viscous  : (0 0 0)
    Sum of moments
        Total    : (0 0 0)
        Pressure : (0 0 0)
        Viscous  : (0 0 0)


forceCoeffs forceCoeffs execute:
    Coefficients
        Cd       : 0	(pressure: 0	viscous: 0)
        Cs       : 0	(pressure: 0	viscous: 0)
        Cl       : 0	(pressure: 0	viscous: 0)
        CmRoll       : 0	(pressure: 0	viscous: 0)
        CmPitch       : 0	(pressure: 0	viscous: 0)
        CmYaw       : 0	(pressure: 0	viscous: 0)
        Cd(f)    : 0
        Cd(r)    : 0
        Cs(f)    : 0
        Cs(r)    : 0
        Cl(f)    : 0
        Cl(r)    : 0
Courant Number mean: 0.0005680279998676095 max: 0.9997870437095031
deltaT = 0.0002564102564102565
Time = 0.0105128

PIMPLE: iteration 1
GAMG:  Solving for p, Initial residual = 0.003283296176450369, Final residual = 9.267645131517805e-09, No Iterations 11
time step continuity errors : sum local = 3.196845817811183e-18, global = 1.626321023970183e-18, cumulative = -1.244148060147889e-17
ExecutionTime = 5.06 s  ClockTime = 6 s

forces forces write:
    Sum of forces
        Total    : (0 0 0)
        Pressure : (0 0 0)
        Viscous  : (0 0 0)
    Sum of moments
        Total    : (0 0 0)
        Pressure : (0 0 0)
        Viscous  : (0 0 0)


forceCoeffs forceCoeffs execute:
    Coefficients
        Cd       : 0	(pressure: 0	viscous: 0)
        Cs       : 0	(pressure: 0	viscous: 0)
        Cl       : 0	(pressure: 0	viscous: 0)
        CmRoll       : 0	(pressure: 0	viscous: 0)
        CmPitch       : 0	(pressure: 0	viscous: 0)
        CmYaw       : 0	(pressure: 0	viscous: 0)
        Cd(f)    : 0
        Cd(r)    : 0
        Cs(f)    : 0
        Cs(r)    : 0
        Cl(f)    : 0
        Cl(r)    : 0
Courant Number mean: 0.0005680279387623251 max: 0.999789831178256
deltaT = 0.0002564102564102564
Time = 0.0107692

PIMPLE: iteration 1
GAMG:  Solving for p, Initial residual = 0.003548605022706791, Final residual = 6.40002669953457e-09, No Iterations 12
time step continuity errors : sum local = 2.216816870487183e-18, global = 1.078229163847107e-18, cumulative = -1.136325143763178e-17
ExecutionTime = 5.19 s  ClockTime = 6 s

forces forces write:
    Sum of forces
        Total    : (0 0 0)
        Pressure : (0 0 0)
        Viscous  : (0 0 0)
    Sum of moments
        Total    : (0 0 0)
        Pressure : (0 0 0)
        Viscous  : (0 0 0)


forceCoeffs forceCoeffs execute:
    Coefficients
        Cd       : 0	(pressure: 0	viscous: 0)
        Cs       : 0	(pressure: 0	viscous: 0)
        Cl       : 0	(pressure: 0	viscous: 0)
        CmRoll       : 0	(pressure: 0	viscous: 0)
        CmPitch       : 0	(pressure: 0	viscous: 0)
        CmYaw       : 0	(pressure: 0	viscous: 0)
        Cd(f)    : 0
        Cd(r)    : 0
        Cs(f)    : 0
        Cs(r)    : 0
        Cl(f)    : 0
        Cl(r)    : 0
Courant Number mean: 0.0005680278779145497 max: 0.9997926084641059
deltaT = 0.0002564102564102564
Time = 0.0110256

PIMPLE: iteration 1
GAMG:  Solving for p, Initial residual = 0.003119361231432751, Final residual = 5.460889065334796e-09, No Iterations 12
time step continuity errors : sum local = 1.898462337851476e-18, global = 9.560139277971884e-19, cumulative = -1.04072375098346e-17
ExecutionTime = 5.3 s  ClockTime = 6 s

forces forces write:
    Sum of forces
        Total    : (0 0 0)
        Pressure : (0 0 0)
        Viscous  : (0 0 0)
    Sum of moments
        Total    : (0 0 0)
        Pressure : (0 0 0)
        Viscous  : (0 0 0)


forceCoeffs forceCoeffs execute:
    Coefficients
        Cd       : 0	(pressure: 0	viscous: 0)
        Cs       : 0	(pressure: 0	viscous: 0)
        Cl       : 0	(pressure: 0	viscous: 0)
        CmRoll       : 0	(pressure: 0	viscous: 0)
        CmPitch       : 0	(pressure: 0	viscous: 0)
        CmYaw       : 0	(pressure: 0	viscous: 0)
        Cd(f)    : 0
        Cd(r)    : 0
        Cs(f)    : 0
        Cs(r)    : 0
        Cl(f)    : 0
        Cl(r)    : 0
Courant Number mean: 0.0005680278173338981 max: 0.999795330347077
deltaT = 0.0002564102564102565
Time = 0.0112821

PIMPLE: iteration 1
GAMG:  Solving for p, Initial residual = 0.003203826135395543, Final residual = 6.502889192109439e-09, No Iterations 12
time step continuity errors : sum local = 2.26609599737993e-18, global = 1.111393796762494e-18, cumulative = -9.295843713072101e-18
ExecutionTime = 5.41 s  ClockTime = 6 s

forces forces write:
    Sum of forces
        Total    : (0 0 0)
        Pressure : (0 0 0)
        Viscous  : (0 0 0)
    Sum of moments
        Total    : (0 0 0)
        Pressure : (0 0 0)
        Viscous  : (0 0 0)


forceCoeffs forceCoeffs execute:
    Coefficients
        Cd       : 0	(pressure: 0	viscous: 0)
        Cs       : 0	(pressure: 0	viscous: 0)
        Cl       : 0	(pressure: 0	viscous: 0)
        CmRoll       : 0	(pressure: 0	viscous: 0)
        CmPitch       : 0	(pressure: 0	viscous: 0)
        CmYaw       : 0	(pressure: 0	viscous: 0)
        Cd(f)    : 0
        Cd(r)    : 0
        Cs(f)    : 0
        Cs(r)    : 0
        Cl(f)    : 0
        Cl(r)    : 0
Courant Number mean: 0.0005680277570155885 max: 0.9997980211774409
deltaT = 0.0002564102564102565
Time = 0.0115385

PIMPLE: iteration 1
GAMG:  Solving for p, Initial residual = 0.003169880018700231, Final residual = 4.949002446939596e-09, No Iterations 12
time step continuity errors : sum local = 1.732582178229221e-18, global = 8.815051324849248e-19, cumulative = -8.414338580587177e-18
ExecutionTime = 5.53 s  ClockTime = 6 s

forces forces write:
    Sum of forces
        Total    : (0 0 0)
        Pressure : (0 0 0)
        Viscous  : (0 0 0)
    Sum of moments
        Total    : (0 0 0)
        Pressure : (0 0 0)
        Viscous  : (0 0 0)


forceCoeffs forceCoeffs execute:
    Coefficients
        Cd       : 0	(pressure: 0	viscous: 0)
        Cs       : 0	(pressure: 0	viscous: 0)
        Cl       : 0	(pressure: 0	viscous: 0)
        CmRoll       : 0	(pressure: 0	viscous: 0)
        CmPitch       : 0	(pressure: 0	viscous: 0)
        CmYaw       : 0	(pressure: 0	viscous: 0)
        Cd(f)    : 0
        Cd(r)    : 0
        Cs(f)    : 0
        Cs(r)    : 0
        Cl(f)    : 0
        Cl(r)    : 0
Courant Number mean: 0.0005680276969440783 max: 0.9998007185865708
deltaT = 0.0002564102564102565
Time = 0.0117949

PIMPLE: iteration 1
GAMG:  Solving for p, Initial residual = 0.003222915288168972, Final residual = 6.951611861743639e-09, No Iterations 12
time step continuity errors : sum local = 2.437376606542348e-18, global = 1.175279472779071e-18, cumulative = -7.239059107808106e-18
ExecutionTime = 5.65 s  ClockTime = 6 s

forces forces write:
    Sum of forces
        Total    : (0 0 0)
        Pressure : (0 0 0)
        Viscous  : (0 0 0)
    Sum of moments
        Total    : (0 0 0)
        Pressure : (0 0 0)
        Viscous  : (0 0 0)


forceCoeffs forceCoeffs execute:
    Coefficients
        Cd       : 0	(pressure: 0	viscous: 0)
        Cs       : 0	(pressure: 0	viscous: 0)
        Cl       : 0	(pressure: 0	viscous: 0)
        CmRoll       : 0	(pressure: 0	viscous: 0)
        CmPitch       : 0	(pressure: 0	viscous: 0)
        CmYaw       : 0	(pressure: 0	viscous: 0)
        Cd(f)    : 0
        Cd(r)    : 0
        Cs(f)    : 0
        Cs(r)    : 0
        Cl(f)    : 0
        Cl(r)    : 0
Courant Number mean: 0.0005680276370872617 max: 0.9998034050021433
deltaT = 0.0002564102564102564
Time = 0.0120513

PIMPLE: iteration 1
GAMG:  Solving for p, Initial residual = 0.002935203119293185, Final residual = 5.958193772945837e-09, No Iterations 12
time step continuity errors : sum local = 2.098166450866057e-18, global = 1.024418408535403e-18, cumulative = -6.214640699272703e-18
ExecutionTime = 5.74 s  ClockTime = 7 s

forces forces write:
    Sum of forces
        Total    : (0 0 0)
        Pressure : (0 0 0)
        Viscous  : (0 0 0)
    Sum of moments
        Total    : (0 0 0)
        Pressure : (0 0 0)
        Viscous  : (0 0 0)


forceCoeffs forceCoeffs execute:
    Coefficients
        Cd       : 0	(pressure: 0	viscous: 0)
        Cs       : 0	(pressure: 0	viscous: 0)
        Cl       : 0	(pressure: 0	viscous: 0)
        CmRoll       : 0	(pressure: 0	viscous: 0)
        CmPitch       : 0	(pressure: 0	viscous: 0)
        CmYaw       : 0	(pressure: 0	viscous: 0)
        Cd(f)    : 0
        Cd(r)    : 0
        Cs(f)    : 0
        Cs(r)    : 0
        Cl(f)    : 0
        Cl(r)    : 0
Courant Number mean: 0.0005680275774483257 max: 0.9998060708883884
deltaT = 0.0002564102564102565
Time = 0.0123077

PIMPLE: iteration 1
GAMG:  Solving for p, Initial residual = 0.003074096603054388, Final residual = 6.206497106088953e-09, No Iterations 12
time step continuity errors : sum local = 2.19261875360615e-18, global = 1.067494442993371e-18, cumulative = -5.147146256279332e-18
ExecutionTime = 5.85 s  ClockTime = 7 s

forces forces write:
    Sum of forces
        Total    : (0 0 0)
        Pressure : (0 0 0)
        Viscous  : (0 0 0)
    Sum of moments
        Total    : (0 0 0)
        Pressure : (0 0 0)
        Viscous  : (0 0 0)


forceCoeffs forceCoeffs execute:
    Coefficients
        Cd       : 0	(pressure: 0	viscous: 0)
        Cs       : 0	(pressure: 0	viscous: 0)
        Cl       : 0	(pressure: 0	viscous: 0)
        CmRoll       : 0	(pressure: 0	viscous: 0)
        CmPitch       : 0	(pressure: 0	viscous: 0)
        CmYaw       : 0	(pressure: 0	viscous: 0)
        Cd(f)    : 0
        Cd(r)    : 0
        Cs(f)    : 0
        Cs(r)    : 0
        Cl(f)    : 0
        Cl(r)    : 0
Courant Number mean: 0.0005680275180306093 max: 0.9998087083070044
deltaT = 0.0002564102564102565
Time = 0.0125641

PIMPLE: iteration 1
GAMG:  Solving for p, Initial residual = 0.002922161773039806, Final residual = 5.945637721299026e-09, No Iterations 12
time step continuity errors : sum local = 2.107050859211596e-18, global = 1.027592201579677e-18, cumulative = -4.119554054699655e-18
ExecutionTime = 5.96 s  ClockTime = 7 s

forces forces write:
    Sum of forces
        Total    : (0 0 0)
        Pressure : (0 0 0)
        Viscous  : (0 0 0)
    Sum of moments
        Total    : (0 0 0)
        Pressure : (0 0 0)
        Viscous  : (0 0 0)


forceCoeffs forceCoeffs execute:
    Coefficients
        Cd       : 0	(pressure: 0	viscous: 0)
        Cs       : 0	(pressure: 0	viscous: 0)
        Cl       : 0	(pressure: 0	viscous: 0)
        CmRoll       : 0	(pressure: 0	viscous: 0)
        CmPitch       : 0	(pressure: 0	viscous: 0)
        CmYaw       : 0	(pressure: 0	viscous: 0)
        Cd(f)    : 0
        Cd(r)    : 0
        Cs(f)    : 0
        Cs(r)    : 0
        Cl(f)    : 0
        Cl(r)    : 0
Courant Number mean: 0.0005680274588152834 max: 0.9998112014702986
deltaT = 0.0002564102564102564
Time = 0.0128205

PIMPLE: iteration 1
GAMG:  Solving for p, Initial residual = 0.003301879335408171, Final residual = 7.164605861144042e-09, No Iterations 12
time step continuity errors : sum local = 2.543769735204707e-18, global = -1.228537967540914e-18, cumulative = -5.348092022240569e-18
ExecutionTime = 6.08 s  ClockTime = 7 s

forces forces write:
    Sum of forces
        Total    : (0 0 0)
        Pressure : (0 0 0)
        Viscous  : (0 0 0)
    Sum of moments
        Total    : (0 0 0)
        Pressure : (0 0 0)
        Viscous  : (0 0 0)


forceCoeffs forceCoeffs execute:
    Coefficients
        Cd       : 0	(pressure: 0	viscous: 0)
        Cs       : 0	(pressure: 0	viscous: 0)
        Cl       : 0	(pressure: 0	viscous: 0)
        CmRoll       : 0	(pressure: 0	viscous: 0)
        CmPitch       : 0	(pressure: 0	viscous: 0)
        CmYaw       : 0	(pressure: 0	viscous: 0)
        Cd(f)    : 0
        Cd(r)    : 0
        Cs(f)    : 0
        Cs(r)    : 0
        Cl(f)    : 0
        Cl(r)    : 0
Courant Number mean: 0.0005680273998391082 max: 0.999813628623985
deltaT = 0.0002564102564102565
Time = 0.0130769

PIMPLE: iteration 1
GAMG:  Solving for p, Initial residual = 0.002931425634353124, Final residual = 5.555697414591872e-09, No Iterations 12
time step continuity errors : sum local = 1.979531181565644e-18, global = 9.956891648013959e-19, cumulative = -4.352402857439173e-18
ExecutionTime = 6.19 s  ClockTime = 7 s

forces forces write:
    Sum of forces
        Total    : (0 0 0)
        Pressure : (0 0 0)
        Viscous  : (0 0 0)
    Sum of moments
        Total    : (0 0 0)
        Pressure : (0 0 0)
        Viscous  : (0 0 0)


forceCoeffs forceCoeffs execute:
    Coefficients
        Cd       : 0	(pressure: 0	viscous: 0)
        Cs       : 0	(pressure: 0	viscous: 0)
        Cl       : 0	(pressure: 0	viscous: 0)
        CmRoll       : 0	(pressure: 0	viscous: 0)
        CmPitch       : 0	(pressure: 0	viscous: 0)
        CmYaw       : 0	(pressure: 0	viscous: 0)
        Cd(f)    : 0
        Cd(r)    : 0
        Cs(f)    : 0
        Cs(r)    : 0
        Cl(f)    : 0
        Cl(r)    : 0
Courant Number mean: 0.0005680273410616385 max: 0.999816113065261
deltaT = 0.0002564102564102565
Time = 0.0133333

PIMPLE: iteration 1
GAMG:  Solving for p, Initial residual = 0.002715016695664247, Final residual = 6.460191064861307e-09, No Iterations 12
time step continuity errors : sum local = 2.305384481758659e-18, global = 1.113613606136486e-18, cumulative = -3.238789251302687e-18
ExecutionTime = 6.3 s  ClockTime = 7 s

forces forces write:
    Sum of forces
        Total    : (0 0 0)
        Pressure : (0 0 0)
        Viscous  : (0 0 0)
    Sum of moments
        Total    : (0 0 0)
        Pressure : (0 0 0)
        Viscous  : (0 0 0)


forceCoeffs forceCoeffs execute:
    Coefficients
        Cd       : 0	(pressure: 0	viscous: 0)
        Cs       : 0	(pressure: 0	viscous: 0)
        Cl       : 0	(pressure: 0	viscous: 0)
        CmRoll       : 0	(pressure: 0	viscous: 0)
        CmPitch       : 0	(pressure: 0	viscous: 0)
        CmYaw       : 0	(pressure: 0	viscous: 0)
        Cd(f)    : 0
        Cd(r)    : 0
        Cs(f)    : 0
        Cs(r)    : 0
        Cl(f)    : 0
        Cl(r)    : 0
Courant Number mean: 0.0005680272824660332 max: 0.9998186031039669
deltaT = 0.0002564102564102565
Time = 0.0135897

PIMPLE: iteration 1
GAMG:  Solving for p, Initial residual = 0.00285294653646587, Final residual = 4.438109975049431e-09, No Iterations 12
time step continuity errors : sum local = 1.595251121733956e-18, global = 4.99152787103795e-19, cumulative = -2.739636464198892e-18
ExecutionTime = 6.42 s  ClockTime = 7 s

forces forces write:
    Sum of forces
        Total    : (0 0 0)
        Pressure : (0 0 0)
        Viscous  : (0 0 0)
    Sum of moments
        Total    : (0 0 0)
        Pressure : (0 0 0)
        Viscous  : (0 0 0)


forceCoeffs forceCoeffs execute:
    Coefficients
        Cd       : 0	(pressure: 0	viscous: 0)
        Cs       : 0	(pressure: 0	viscous: 0)
        Cl       : 0	(pressure: 0	viscous: 0)
        CmRoll       : 0	(pressure: 0	viscous: 0)
        CmPitch       : 0	(pressure: 0	viscous: 0)
        CmYaw       : 0	(pressure: 0	viscous: 0)
        Cd(f)    : 0
        Cd(r)    : 0
        Cs(f)    : 0
        Cs(r)    : 0
        Cl(f)    : 0
        Cl(r)    : 0
Courant Number mean: 0.0005680272240421132 max: 0.9998212519615587
deltaT = 0.0002564102564102565
Time = 0.0138462

PIMPLE: iteration 1
GAMG:  Solving for p, Initial residual = 0.002711958726732068, Final residual = 5.395729905310887e-09, No Iterations 12
time step continuity errors : sum local = 1.938455576869465e-18, global = 9.577178501883567e-19, cumulative = -1.781918614010535e-18
ExecutionTime = 6.53 s  ClockTime = 7 s

forces forces write:
    Sum of forces
        Total    : (0 0 0)
        Pressure : (0 0 0)
        Viscous  : (0 0 0)
    Sum of moments
        Total    : (0 0 0)
        Pressure : (0 0 0)
        Viscous  : (0 0 0)


forceCoeffs forceCoeffs execute:
    Coefficients
        Cd       : 0	(pressure: 0	viscous: 0)
        Cs       : 0	(pressure: 0	viscous: 0)
        Cl       : 0	(pressure: 0	viscous: 0)
        CmRoll       : 0	(pressure: 0	viscous: 0)
        CmPitch       : 0	(pressure: 0	viscous: 0)
        CmYaw       : 0	(pressure: 0	viscous: 0)
        Cd(f)    : 0
        Cd(r)    : 0
        Cs(f)    : 0
        Cs(r)    : 0
        Cl(f)    : 0
        Cl(r)    : 0
Courant Number mean: 0.00056802716579193 max: 0.9998239212584586
deltaT = 0.0002564102564102565
Time = 0.0141026

PIMPLE: iteration 1
GAMG:  Solving for p, Initial residual = 0.002699681573159063, Final residual = 6.561007286044638e-09, No Iterations 12
time step continuity errors : sum local = 2.363317099958455e-18, global = 1.135576685430779e-18, cumulative = -6.46341928579756e-19
ExecutionTime = 6.63 s  ClockTime = 7 s

forces forces write:
    Sum of forces
        Total    : (0 0 0)
        Pressure : (0 0 0)
        Viscous  : (0 0 0)
    Sum of moments
        Total    : (0 0 0)
        Pressure : (0 0 0)
        Viscous  : (0 0 0)


forceCoeffs forceCoeffs execute:
    Coefficients
        Cd       : 0	(pressure: 0	viscous: 0)
        Cs       : 0	(pressure: 0	viscous: 0)
        Cl       : 0	(pressure: 0	viscous: 0)
        CmRoll       : 0	(pressure: 0	viscous: 0)
        CmPitch       : 0	(pressure: 0	viscous: 0)
        CmYaw       : 0	(pressure: 0	viscous: 0)
        Cd(f)    : 0
        Cd(r)    : 0
        Cs(f)    : 0
        Cs(r)    : 0
        Cl(f)    : 0
        Cl(r)    : 0
Courant Number mean: 0.0005680271076941913 max: 0.9998266106458294
deltaT = 0.0002564102564102565
Time = 0.014359

PIMPLE: iteration 1
GAMG:  Solving for p, Initial residual = 0.002749202191999659, Final residual = 5.950351810466984e-09, No Iterations 12
time step continuity errors : sum local = 2.152677787347683e-18, global = 1.039648640549486e-18, cumulative = 3.933067119697299e-19
ExecutionTime = 6.75 s  ClockTime = 8 s

forces forces write:
    Sum of forces
        Total    : (0 0 0)
        Pressure : (0 0 0)
        Viscous  : (0 0 0)
    Sum of moments
        Total    : (0 0 0)
        Pressure : (0 0 0)
        Viscous  : (0 0 0)


forceCoeffs forceCoeffs execute:
    Coefficients
        Cd       : 0	(pressure: 0	viscous: 0)
        Cs       : 0	(pressure: 0	viscous: 0)
        Cl       : 0	(pressure: 0	viscous: 0)
        CmRoll       : 0	(pressure: 0	viscous: 0)
        CmPitch       : 0	(pressure: 0	viscous: 0)
        CmYaw       : 0	(pressure: 0	viscous: 0)
        Cd(f)    : 0
        Cd(r)    : 0
        Cs(f)    : 0
        Cs(r)    : 0
        Cl(f)    : 0
        Cl(r)    : 0
Courant Number mean: 0.0005680270497677347 max: 0.9998292971938285
deltaT = 0.0002564102564102565
Time = 0.0146154

PIMPLE: iteration 1
GAMG:  Solving for p, Initial residual = 0.00261221606363133, Final residual = 5.730877444645489e-09, No Iterations 12
time step continuity errors : sum local = 2.078575472620369e-18, global = 1.026112667511905e-18, cumulative = 1.419419379481635e-18
ExecutionTime = 6.83 s  ClockTime = 8 s

forces forces write:
    Sum of forces
        Total    : (0 0 0)
        Pressure : (0 0 0)
        Viscous  : (0 0 0)
    Sum of moments
        Total    : (0 0 0)
        Pressure : (0 0 0)
        Viscous  : (0 0 0)


forceCoeffs forceCoeffs execute:
    Coefficients
        Cd       : 0	(pressure: 0	viscous: 0)
        Cs       : 0	(pressure: 0	viscous: 0)
        Cl       : 0	(pressure: 0	viscous: 0)
        CmRoll       : 0	(pressure: 0	viscous: 0)
        CmPitch       : 0	(pressure: 0	viscous: 0)
        CmYaw       : 0	(pressure: 0	viscous: 0)
        Cd(f)    : 0
        Cd(r)    : 0
        Cs(f)    : 0
        Cs(r)    : 0
        Cl(f)    : 0
        Cl(r)    : 0
Courant Number mean: 0.0005680269920167818 max: 0.9998319453113084
deltaT = 0.0002564102564102564
Time = 0.0148718

PIMPLE: iteration 1
GAMG:  Solving for p, Initial residual = 0.00255153349830293, Final residual = 5.09376374575888e-09, No Iterations 12
time step continuity errors : sum local = 1.852798845595599e-18, global = 9.167084589076921e-19, cumulative = 2.336127838389327e-18
ExecutionTime = 6.96 s  ClockTime = 8 s

forces forces write:
    Sum of forces
        Total    : (0 0 0)
        Pressure : (0 0 0)
        Viscous  : (0 0 0)
    Sum of moments
        Total    : (0 0 0)
        Pressure : (0 0 0)
        Viscous  : (0 0 0)


forceCoeffs forceCoeffs execute:
    Coefficients
        Cd       : 0	(pressure: 0	viscous: 0)
        Cs       : 0	(pressure: 0	viscous: 0)
        Cl       : 0	(pressure: 0	viscous: 0)
        CmRoll       : 0	(pressure: 0	viscous: 0)
        CmPitch       : 0	(pressure: 0	viscous: 0)
        CmYaw       : 0	(pressure: 0	viscous: 0)
        Cd(f)    : 0
        Cd(r)    : 0
        Cs(f)    : 0
        Cs(r)    : 0
        Cl(f)    : 0
        Cl(r)    : 0
Courant Number mean: 0.0005680269344295037 max: 0.9998346360321546
deltaT = 0.0002564102564102565
Time = 0.0151282

PIMPLE: iteration 1
GAMG:  Solving for p, Initial residual = 0.002607207364850373, Final residual = 8.866738128664376e-09, No Iterations 11
time step continuity errors : sum local = 3.230769474523255e-18, global = 1.448762121330051e-18, cumulative = 3.784889959719378e-18
ExecutionTime = 7.09 s  ClockTime = 8 s

forces forces write:
    Sum of forces
        Total    : (0 0 0)
        Pressure : (0 0 0)
        Viscous  : (0 0 0)
    Sum of moments
        Total    : (0 0 0)
        Pressure : (0 0 0)
        Viscous  : (0 0 0)


forceCoeffs forceCoeffs execute:
    Coefficients
        Cd       : 0	(pressure: 0	viscous: 0)
        Cs       : 0	(pressure: 0	viscous: 0)
        Cl       : 0	(pressure: 0	viscous: 0)
        CmRoll       : 0	(pressure: 0	viscous: 0)
        CmPitch       : 0	(pressure: 0	viscous: 0)
        CmYaw       : 0	(pressure: 0	viscous: 0)
        Cd(f)    : 0
        Cd(r)    : 0
        Cs(f)    : 0
        Cs(r)    : 0
        Cl(f)    : 0
        Cl(r)    : 0
Courant Number mean: 0.0005680268770163438 max: 0.9998372978291584
deltaT = 0.0002564102564102565
Time = 0.0153846

PIMPLE: iteration 1
GAMG:  Solving for p, Initial residual = 0.002580004978068986, Final residual = 5.015225555435516e-09, No Iterations 12
time step continuity errors : sum local = 1.834123110220309e-18, global = 8.835482239496313e-19, cumulative = 4.668438183669009e-18
ExecutionTime = 7.2 s  ClockTime = 8 s

forces forces write:
    Sum of forces
        Total    : (0 0 0)
        Pressure : (0 0 0)
        Viscous  : (0 0 0)
    Sum of moments
        Total    : (0 0 0)
        Pressure : (0 0 0)
        Viscous  : (0 0 0)


forceCoeffs forceCoeffs execute:
    Coefficients
        Cd       : 0	(pressure: 0	viscous: 0)
        Cs       : 0	(pressure: 0	viscous: 0)
        Cl       : 0	(pressure: 0	viscous: 0)
        CmRoll       : 0	(pressure: 0	viscous: 0)
        CmPitch       : 0	(pressure: 0	viscous: 0)
        CmYaw       : 0	(pressure: 0	viscous: 0)
        Cd(f)    : 0
        Cd(r)    : 0
        Cs(f)    : 0
        Cs(r)    : 0
        Cl(f)    : 0
        Cl(r)    : 0
Courant Number mean: 0.0005680268197365502 max: 0.9998399280687728
deltaT = 0.0002564102564102565
Time = 0.015641

PIMPLE: iteration 1
GAMG:  Solving for p, Initial residual = 0.00241693568966261, Final residual = 5.580675886460216e-09, No Iterations 12
time step continuity errors : sum local = 2.046538776319802e-18, global = 9.844790782157464e-19, cumulative = 5.652917261884756e-18
ExecutionTime = 7.28 s  ClockTime = 8 s

forces forces write:
    Sum of forces
        Total    : (0 0 0)
        Pressure : (0 0 0)
        Viscous  : (0 0 0)
    Sum of moments
        Total    : (0 0 0)
        Pressure : (0 0 0)
        Viscous  : (0 0 0)


forceCoeffs forceCoeffs execute:
    Coefficients
        Cd       : 0	(pressure: 0	viscous: 0)
        Cs       : 0	(pressure: 0	viscous: 0)
        Cl       : 0	(pressure: 0	viscous: 0)
        CmRoll       : 0	(pressure: 0	viscous: 0)
        CmPitch       : 0	(pressure: 0	viscous: 0)
        CmYaw       : 0	(pressure: 0	viscous: 0)
        Cd(f)    : 0
        Cd(r)    : 0
        Cs(f)    : 0
        Cs(r)    : 0
        Cl(f)    : 0
        Cl(r)    : 0
Courant Number mean: 0.0005680267625910479 max: 0.9998425420384487
deltaT = 0.0002564102564102565
Time = 0.0158974

PIMPLE: iteration 1
GAMG:  Solving for p, Initial residual = 0.002451644087667129, Final residual = 8.593013400169999e-09, No Iterations 11
time step continuity errors : sum local = 3.157369824429719e-18, global = 9.146587017558057e-19, cumulative = 6.567575963640561e-18
ExecutionTime = 7.37 s  ClockTime = 8 s

forces forces write:
    Sum of forces
        Total    : (0 0 0)
        Pressure : (0 0 0)
        Viscous  : (0 0 0)
    Sum of moments
        Total    : (0 0 0)
        Pressure : (0 0 0)
        Viscous  : (0 0 0)


forceCoeffs forceCoeffs execute:
    Coefficients
        Cd       : 0	(pressure: 0	viscous: 0)
        Cs       : 0	(pressure: 0	viscous: 0)
        Cl       : 0	(pressure: 0	viscous: 0)
        CmRoll       : 0	(pressure: 0	viscous: 0)
        CmPitch       : 0	(pressure: 0	viscous: 0)
        CmYaw       : 0	(pressure: 0	viscous: 0)
        Cd(f)    : 0
        Cd(r)    : 0
        Cs(f)    : 0
        Cs(r)    : 0
        Cl(f)    : 0
        Cl(r)    : 0
Courant Number mean: 0.0005680267055887984 max: 0.9998451615624798
deltaT = 0.0002564102564102565
Time = 0.0161538

PIMPLE: iteration 1
GAMG:  Solving for p, Initial residual = 0.002346871744705518, Final residual = 5.40707209223639e-09, No Iterations 12
time step continuity errors : sum local = 1.992858461015426e-18, global = 9.584327022109013e-19, cumulative = 7.526008665851463e-18
ExecutionTime = 7.46 s  ClockTime = 8 s

forces forces write:
    Sum of forces
        Total    : (0 0 0)
        Pressure : (0 0 0)
        Viscous  : (0 0 0)
    Sum of moments
        Total    : (0 0 0)
        Pressure : (0 0 0)
        Viscous  : (0 0 0)


forceCoeffs forceCoeffs execute:
    Coefficients
        Cd       : 0	(pressure: 0	viscous: 0)
        Cs       : 0	(pressure: 0	viscous: 0)
        Cl       : 0	(pressure: 0	viscous: 0)
        CmRoll       : 0	(pressure: 0	viscous: 0)
        CmPitch       : 0	(pressure: 0	viscous: 0)
        CmYaw       : 0	(pressure: 0	viscous: 0)
        Cd(f)    : 0
        Cd(r)    : 0
        Cs(f)    : 0
        Cs(r)    : 0
        Cl(f)    : 0
        Cl(r)    : 0
Courant Number mean: 0.000568026648718205 max: 0.9998477405495846
deltaT = 0.0002564102564102565
Time = 0.0164103

PIMPLE: iteration 1
GAMG:  Solving for p, Initial residual = 0.002264323968680619, Final residual = 4.762636841675772e-09, No Iterations 12
time step continuity errors : sum local = 1.761970412613838e-18, global = 8.588427487151627e-19, cumulative = 8.384851414566625e-18
ExecutionTime = 7.58 s  ClockTime = 9 s

forces forces write:
    Sum of forces
        Total    : (0 0 0)
        Pressure : (0 0 0)
        Viscous  : (0 0 0)
    Sum of moments
        Total    : (0 0 0)
        Pressure : (0 0 0)
        Viscous  : (0 0 0)


forceCoeffs forceCoeffs execute:
    Coefficients
        Cd       : 0	(pressure: 0	viscous: 0)
        Cs       : 0	(pressure: 0	viscous: 0)
        Cl       : 0	(pressure: 0	viscous: 0)
        CmRoll       : 0	(pressure: 0	viscous: 0)
        CmPitch       : 0	(pressure: 0	viscous: 0)
        CmYaw       : 0	(pressure: 0	viscous: 0)
        Cd(f)    : 0
        Cd(r)    : 0
        Cs(f)    : 0
        Cs(r)    : 0
        Cl(f)    : 0
        Cl(r)    : 0
Courant Number mean: 0.0005680265919824001 max: 0.9998503140930632
deltaT = 0.0002564102564102565
Time = 0.0166667

PIMPLE: iteration 1
GAMG:  Solving for p, Initial residual = 0.002406846990551989, Final residual = 6.512277969603769e-09, No Iterations 12
time step continuity errors : sum local = 2.413398936248952e-18, global = 1.168424669652413e-18, cumulative = 9.553276084219039e-18
ExecutionTime = 7.67 s  ClockTime = 9 s

forces forces write:
    Sum of forces
        Total    : (0 0 0)
        Pressure : (0 0 0)
        Viscous  : (0 0 0)
    Sum of moments
        Total    : (0 0 0)
        Pressure : (0 0 0)
        Viscous  : (0 0 0)


forceCoeffs forceCoeffs execute:
    Coefficients
        Cd       : 0	(pressure: 0	viscous: 0)
        Cs       : 0	(pressure: 0	viscous: 0)
        Cl       : 0	(pressure: 0	viscous: 0)
        CmRoll       : 0	(pressure: 0	viscous: 0)
        CmPitch       : 0	(pressure: 0	viscous: 0)
        CmYaw       : 0	(pressure: 0	viscous: 0)
        Cd(f)    : 0
        Cd(r)    : 0
        Cs(f)    : 0
        Cs(r)    : 0
        Cl(f)    : 0
        Cl(r)    : 0
Courant Number mean: 0.0005680265353706554 max: 0.999852858675783
deltaT = 0.0002564102564102565
Time = 0.0169231

PIMPLE: iteration 1
GAMG:  Solving for p, Initial residual = 0.00225675442026966, Final residual = 5.153581307434736e-09, No Iterations 12
time step continuity errors : sum local = 1.915861807502653e-18, global = 9.217738500253213e-19, cumulative = 1.047504993424436e-17
ExecutionTime = 7.79 s  ClockTime = 9 s

forces forces write:
    Sum of forces
        Total    : (0 0 0)
        Pressure : (0 0 0)
        Viscous  : (0 0 0)
    Sum of moments
        Total    : (0 0 0)
        Pressure : (0 0 0)
        Viscous  : (0 0 0)


forceCoeffs forceCoeffs execute:
    Coefficients
        Cd       : 0	(pressure: 0	viscous: 0)
        Cs       : 0	(pressure: 0	viscous: 0)
        Cl       : 0	(pressure: 0	viscous: 0)
        CmRoll       : 0	(pressure: 0	viscous: 0)
        CmPitch       : 0	(pressure: 0	viscous: 0)
        CmYaw       : 0	(pressure: 0	viscous: 0)
        Cd(f)    : 0
        Cd(r)    : 0
        Cs(f)    : 0
        Cs(r)    : 0
        Cl(f)    : 0
        Cl(r)    : 0
Courant Number mean: 0.000568026478887322 max: 0.9998553766007628
deltaT = 0.0002564102564102565
Time = 0.0171795

PIMPLE: iteration 1
GAMG:  Solving for p, Initial residual = 0.002260194198282726, Final residual = 9.886109117615893e-09, No Iterations 11
time step continuity errors : sum local = 3.679615252864984e-18, global = 1.866149796054708e-18, cumulative = 1.234119973029907e-17
ExecutionTime = 7.9 s  ClockTime = 9 s

forces forces write:
    Sum of forces
        Total    : (0 0 0)
        Pressure : (0 0 0)
        Viscous  : (0 0 0)
    Sum of moments
        Total    : (0 0 0)
        Pressure : (0 0 0)
        Viscous  : (0 0 0)


forceCoeffs forceCoeffs execute:
    Coefficients
        Cd       : 0	(pressure: 0	viscous: 0)
        Cs       : 0	(pressure: 0	viscous: 0)
        Cl       : 0	(pressure: 0	viscous: 0)
        CmRoll       : 0	(pressure: 0	viscous: 0)
        CmPitch       : 0	(pressure: 0	viscous: 0)
        CmYaw       : 0	(pressure: 0	viscous: 0)
        Cd(f)    : 0
        Cd(r)    : 0
        Cs(f)    : 0
        Cs(r)    : 0
        Cl(f)    : 0
        Cl(r)    : 0
Courant Number mean: 0.0005680264225336545 max: 0.9998578572977642
deltaT = 0.0002564102564102565
Time = 0.0174359

PIMPLE: iteration 1
GAMG:  Solving for p, Initial residual = 0.002589345773692574, Final residual = 5.382204697611907e-09, No Iterations 12
time step continuity errors : sum local = 2.011374434143744e-18, global = -1.000568989735989e-18, cumulative = 1.134063074056308e-17
ExecutionTime = 8.01 s  ClockTime = 9 s

forces forces write:
    Sum of forces
        Total    : (0 0 0)
        Pressure : (0 0 0)
        Viscous  : (0 0 0)
    Sum of moments
        Total    : (0 0 0)
        Pressure : (0 0 0)
        Viscous  : (0 0 0)


forceCoeffs forceCoeffs execute:
    Coefficients
        Cd       : 0	(pressure: 0	viscous: 0)
        Cs       : 0	(pressure: 0	viscous: 0)
        Cl       : 0	(pressure: 0	viscous: 0)
        CmRoll       : 0	(pressure: 0	viscous: 0)
        CmPitch       : 0	(pressure: 0	viscous: 0)
        CmYaw       : 0	(pressure: 0	viscous: 0)
        Cd(f)    : 0
        Cd(r)    : 0
        Cs(f)    : 0
        Cs(r)    : 0
        Cl(f)    : 0
        Cl(r)    : 0
Courant Number mean: 0.0005680263663366066 max: 0.9998603151953132
deltaT = 0.0002564102564102565
Time = 0.0176923

PIMPLE: iteration 1
GAMG:  Solving for p, Initial residual = 0.002393730339955358, Final residual = 8.504083838268396e-09, No Iterations 11
time step continuity errors : sum local = 3.17834312426314e-18, global = 1.627657352283596e-18, cumulative = 1.296828809284668e-17
ExecutionTime = 8.130000000000001 s  ClockTime = 9 s

forces forces write:
    Sum of forces
        Total    : (0 0 0)
        Pressure : (0 0 0)
        Viscous  : (0 0 0)
    Sum of moments
        Total    : (0 0 0)
        Pressure : (0 0 0)
        Viscous  : (0 0 0)


forceCoeffs forceCoeffs execute:
    Coefficients
        Cd       : 0	(pressure: 0	viscous: 0)
        Cs       : 0	(pressure: 0	viscous: 0)
        Cl       : 0	(pressure: 0	viscous: 0)
        CmRoll       : 0	(pressure: 0	viscous: 0)
        CmPitch       : 0	(pressure: 0	viscous: 0)
        CmYaw       : 0	(pressure: 0	viscous: 0)
        Cd(f)    : 0
        Cd(r)    : 0
        Cs(f)    : 0
        Cs(r)    : 0
        Cl(f)    : 0
        Cl(r)    : 0
Courant Number mean: 0.0005680263102549063 max: 0.9998627763689237
deltaT = 0.0002564102564102565
Time = 0.0179487

PIMPLE: iteration 1
[...]
        Pressure : (0 0 0)
        Viscous  : (0 0 0)


forceCoeffs forceCoeffs execute:
    Coefficients
        Cd       : 0	(pressure: 0	viscous: 0)
        Cs       : 0	(pressure: 0	viscous: 0)
        Cl       : 0	(pressure: 0	viscous: 0)
        CmRoll       : 0	(pressure: 0	viscous: 0)
        CmPitch       : 0	(pressure: 0	viscous: 0)
        CmYaw       : 0	(pressure: 0	viscous: 0)
        Cd(f)    : 0
        Cd(r)    : 0
        Cs(f)    : 0
        Cs(r)    : 0
        Cl(f)    : 0
        Cl(r)    : 0
Courant Number mean: 0.0005680111964177595 max: 1.002073496116206
deltaT = 0.0002564102564102601
Time = 0.0958974

PIMPLE: iteration 1
GAMG:  Solving for p, Initial residual = 0.01015343364570958, Final residual = 6.762852570313532e-09, No Iterations 14
time step continuity errors : sum local = 4.522565746978007e-18, global = 2.198742696723797e-18, cumulative = 9.019756161195951e-17
ExecutionTime = 42.32 s  ClockTime = 44 s

forces forces write:
    Sum of forces
        Total    : (0 0 0)
        Pressure : (0 0 0)
        Viscous  : (0 0 0)
    Sum of moments
        Total    : (0 0 0)
        Pressure : (0 0 0)
        Viscous  : (0 0 0)


forceCoeffs forceCoeffs execute:
    Coefficients
        Cd       : 0	(pressure: 0	viscous: 0)
        Cs       : 0	(pressure: 0	viscous: 0)
        Cl       : 0	(pressure: 0	viscous: 0)
        CmRoll       : 0	(pressure: 0	viscous: 0)
        CmPitch       : 0	(pressure: 0	viscous: 0)
        CmYaw       : 0	(pressure: 0	viscous: 0)
        Cd(f)    : 0
        Cd(r)    : 0
        Cs(f)    : 0
        Cs(r)    : 0
        Cl(f)    : 0
        Cl(r)    : 0
Courant Number mean: 0.0005680111495244065 max: 1.002138542447372
deltaT = 0.0002564102564102597
Time = 0.0961538

PIMPLE: iteration 1
GAMG:  Solving for p, Initial residual = 0.009181417763020058, Final residual = 6.941044418283101e-09, No Iterations 14
time step continuity errors : sum local = 4.670084970705797e-18, global = -2.250562718972728e-18, cumulative = 8.794699889298677e-17
ExecutionTime = 42.43 s  ClockTime = 45 s

forces forces write:
    Sum of forces
        Total    : (0 0 0)
        Pressure : (0 0 0)
        Viscous  : (0 0 0)
    Sum of moments
        Total    : (0 0 0)
        Pressure : (0 0 0)
        Viscous  : (0 0 0)


forceCoeffs forceCoeffs execute:
    Coefficients
        Cd       : 0	(pressure: 0	viscous: 0)
        Cs       : 0	(pressure: 0	viscous: 0)
        Cl       : 0	(pressure: 0	viscous: 0)
        CmRoll       : 0	(pressure: 0	viscous: 0)
        CmPitch       : 0	(pressure: 0	viscous: 0)
        CmYaw       : 0	(pressure: 0	viscous: 0)
        Cd(f)    : 0
        Cd(r)    : 0
        Cs(f)    : 0
        Cs(r)    : 0
        Cl(f)    : 0
        Cl(r)    : 0
Courant Number mean: 0.0005680111022158684 max: 1.002199728062663
deltaT = 0.0002564102564102592
Time = 0.0964103

PIMPLE: iteration 1
GAMG:  Solving for p, Initial residual = 0.009367990647665815, Final residual = 5.597402455513965e-09, No Iterations 14
time step continuity errors : sum local = 3.781632768129327e-18, global = 1.817615256042021e-18, cumulative = 8.97646141490288e-17
ExecutionTime = 42.51 s  ClockTime = 45 s

forces forces write:
    Sum of forces
        Total    : (0 0 0)
        Pressure : (0 0 0)
        Viscous  : (0 0 0)
    Sum of moments
        Total    : (0 0 0)
        Pressure : (0 0 0)
        Viscous  : (0 0 0)


forceCoeffs forceCoeffs execute:
    Coefficients
        Cd       : 0	(pressure: 0	viscous: 0)
        Cs       : 0	(pressure: 0	viscous: 0)
        Cl       : 0	(pressure: 0	viscous: 0)
        CmRoll       : 0	(pressure: 0	viscous: 0)
        CmPitch       : 0	(pressure: 0	viscous: 0)
        CmYaw       : 0	(pressure: 0	viscous: 0)
        Cd(f)    : 0
        Cd(r)    : 0
        Cs(f)    : 0
        Cs(r)    : 0
        Cl(f)    : 0
        Cl(r)    : 0
Courant Number mean: 0.000568011054532603 max: 1.002270454945971
deltaT = 0.0002564102564102597
Time = 0.0966667

PIMPLE: iteration 1
GAMG:  Solving for p, Initial residual = 0.01408069105388618, Final residual = 9.024403667183596e-09, No Iterations 15
time step continuity errors : sum local = 6.106390180703131e-18, global = -2.93706990250503e-18, cumulative = 8.682754424652377e-17
ExecutionTime = 42.59 s  ClockTime = 45 s

forces forces write:
    Sum of forces
        Total    : (0 0 0)
        Pressure : (0 0 0)
        Viscous  : (0 0 0)
    Sum of moments
        Total    : (0 0 0)
        Pressure : (0 0 0)
        Viscous  : (0 0 0)


forceCoeffs forceCoeffs execute:
    Coefficients
        Cd       : 0	(pressure: 0	viscous: 0)
        Cs       : 0	(pressure: 0	viscous: 0)
        Cl       : 0	(pressure: 0	viscous: 0)
        CmRoll       : 0	(pressure: 0	viscous: 0)
        CmPitch       : 0	(pressure: 0	viscous: 0)
        CmYaw       : 0	(pressure: 0	viscous: 0)
        Cd(f)    : 0
        Cd(r)    : 0
        Cs(f)    : 0
        Cs(r)    : 0
        Cl(f)    : 0
        Cl(r)    : 0
Courant Number mean: 0.000568011007036452 max: 1.002344381796059
deltaT = 0.0002564102564102602
Time = 0.0969231

PIMPLE: iteration 1
GAMG:  Solving for p, Initial residual = 0.01400658028764819, Final residual = 5.693706585635463e-09, No Iterations 15
time step continuity errors : sum local = 3.851486646972703e-18, global = 1.857115044112097e-18, cumulative = 8.868465929063587e-17
ExecutionTime = 42.71 s  ClockTime = 45 s

forces forces write:
    Sum of forces
        Total    : (0 0 0)
        Pressure : (0 0 0)
        Viscous  : (0 0 0)
    Sum of moments
        Total    : (0 0 0)
        Pressure : (0 0 0)
        Viscous  : (0 0 0)


forceCoeffs forceCoeffs execute:
    Coefficients
        Cd       : 0	(pressure: 0	viscous: 0)
        Cs       : 0	(pressure: 0	viscous: 0)
        Cl       : 0	(pressure: 0	viscous: 0)
        CmRoll       : 0	(pressure: 0	viscous: 0)
        CmPitch       : 0	(pressure: 0	viscous: 0)
        CmYaw       : 0	(pressure: 0	viscous: 0)
        Cd(f)    : 0
        Cd(r)    : 0
        Cs(f)    : 0
        Cs(r)    : 0
        Cl(f)    : 0
        Cl(r)    : 0
Courant Number mean: 0.0005680109583989639 max: 1.002430457390679
deltaT = 0.0002564102564102597
Time = 0.0971795

PIMPLE: iteration 1
GAMG:  Solving for p, Initial residual = 0.01472661379247671, Final residual = 8.829241232916336e-09, No Iterations 15
time step continuity errors : sum local = 5.986140804803413e-18, global = -2.879928076515369e-18, cumulative = 8.580473121412049e-17
ExecutionTime = 42.81 s  ClockTime = 45 s

forces forces write:
    Sum of forces
        Total    : (0 0 0)
        Pressure : (0 0 0)
        Viscous  : (0 0 0)
    Sum of moments
        Total    : (0 0 0)
        Pressure : (0 0 0)
        Viscous  : (0 0 0)


forceCoeffs forceCoeffs execute:
    Coefficients
        Cd       : 0	(pressure: 0	viscous: 0)
        Cs       : 0	(pressure: 0	viscous: 0)
        Cl       : 0	(pressure: 0	viscous: 0)
        CmRoll       : 0	(pressure: 0	viscous: 0)
        CmPitch       : 0	(pressure: 0	viscous: 0)
        CmYaw       : 0	(pressure: 0	viscous: 0)
        Cd(f)    : 0
        Cd(r)    : 0
        Cs(f)    : 0
        Cs(r)    : 0
        Cl(f)    : 0
        Cl(r)    : 0
Courant Number mean: 0.0005680109119167349 max: 1.002474295479805
deltaT = 0.000256410256410259
Time = 0.0974359

PIMPLE: iteration 1
GAMG:  Solving for p, Initial residual = 0.01304347182807796, Final residual = 9.23107884168916e-09, No Iterations 14
time step continuity errors : sum local = 6.259278634375726e-18, global = -3.031829334782463e-18, cumulative = 8.277290187933803e-17
ExecutionTime = 42.92 s  ClockTime = 45 s

forces forces write:
    Sum of forces
        Total    : (0 0 0)
        Pressure : (0 0 0)
        Viscous  : (0 0 0)
    Sum of moments
        Total    : (0 0 0)
        Pressure : (0 0 0)
        Viscous  : (0 0 0)


forceCoeffs forceCoeffs execute:
    Coefficients
        Cd       : 0	(pressure: 0	viscous: 0)
        Cs       : 0	(pressure: 0	viscous: 0)
        Cl       : 0	(pressure: 0	viscous: 0)
        CmRoll       : 0	(pressure: 0	viscous: 0)
        CmPitch       : 0	(pressure: 0	viscous: 0)
        CmYaw       : 0	(pressure: 0	viscous: 0)
        Cd(f)    : 0
        Cd(r)    : 0
        Cs(f)    : 0
        Cs(r)    : 0
        Cl(f)    : 0
        Cl(r)    : 0
Courant Number mean: 0.0005680108652589905 max: 1.002537627032836
deltaT = 0.0002564102564102597
Time = 0.0976923

PIMPLE: iteration 1
GAMG:  Solving for p, Initial residual = 0.006664775403361631, Final residual = 8.787871138704458e-09, No Iterations 13
time step continuity errors : sum local = 5.989460501169176e-18, global = 2.952415250507008e-18, cumulative = 8.572531712984504e-17
ExecutionTime = 42.99 s  ClockTime = 45 s

forces forces write:
    Sum of forces
        Total    : (0 0 0)
        Pressure : (0 0 0)
        Viscous  : (0 0 0)
    Sum of moments
        Total    : (0 0 0)
        Pressure : (0 0 0)
        Viscous  : (0 0 0)


forceCoeffs forceCoeffs execute:
    Coefficients
        Cd       : 0	(pressure: 0	viscous: 0)
        Cs       : 0	(pressure: 0	viscous: 0)
        Cl       : 0	(pressure: 0	viscous: 0)
        CmRoll       : 0	(pressure: 0	viscous: 0)
        CmPitch       : 0	(pressure: 0	viscous: 0)
        CmYaw       : 0	(pressure: 0	viscous: 0)
        Cd(f)    : 0
        Cd(r)    : 0
        Cs(f)    : 0
        Cs(r)    : 0
        Cl(f)    : 0
        Cl(r)    : 0
Courant Number mean: 0.0005680108182179355 max: 1.002618616126035
deltaT = 0.0002564102564102604
Time = 0.0979487

PIMPLE: iteration 1
GAMG:  Solving for p, Initial residual = 0.009616339486087878, Final residual = 5.499192050829777e-09, No Iterations 14
time step continuity errors : sum local = 3.764159372340128e-18, global = -1.919978669971628e-18, cumulative = 8.38053384598734e-17
ExecutionTime = 43.08 s  ClockTime = 45 s

forces forces write:
    Sum of forces
        Total    : (0 0 0)
        Pressure : (0 0 0)
        Viscous  : (0 0 0)
    Sum of moments
        Total    : (0 0 0)
        Pressure : (0 0 0)
        Viscous  : (0 0 0)


forceCoeffs forceCoeffs execute:
    Coefficients
        Cd       : 0	(pressure: 0	viscous: 0)
        Cs       : 0	(pressure: 0	viscous: 0)
        Cl       : 0	(pressure: 0	viscous: 0)
        CmRoll       : 0	(pressure: 0	viscous: 0)
        CmPitch       : 0	(pressure: 0	viscous: 0)
        CmYaw       : 0	(pressure: 0	viscous: 0)
        Cd(f)    : 0
        Cd(r)    : 0
        Cs(f)    : 0
        Cs(r)    : 0
        Cl(f)    : 0
        Cl(r)    : 0
Courant Number mean: 0.0005680107710425384 max: 1.002692085353836
deltaT = 0.0002564102564102597
Time = 0.0982051

PIMPLE: iteration 1
GAMG:  Solving for p, Initial residual = 0.01120907198836849, Final residual = 9.283429648706956e-09, No Iterations 14
time step continuity errors : sum local = 6.37417544120954e-18, global = 3.075580223822566e-18, cumulative = 8.688091868369597e-17
ExecutionTime = 43.13 s  ClockTime = 45 s

forces forces write:
    Sum of forces
        Total    : (0 0 0)
        Pressure : (0 0 0)
        Viscous  : (0 0 0)
    Sum of moments
        Total    : (0 0 0)
        Pressure : (0 0 0)
        Viscous  : (0 0 0)


forceCoeffs forceCoeffs execute:
    Coefficients
        Cd       : 0	(pressure: 0	viscous: 0)
        Cs       : 0	(pressure: 0	viscous: 0)
        Cl       : 0	(pressure: 0	viscous: 0)
        CmRoll       : 0	(pressure: 0	viscous: 0)
        CmPitch       : 0	(pressure: 0	viscous: 0)
        CmYaw       : 0	(pressure: 0	viscous: 0)
        Cd(f)    : 0
        Cd(r)    : 0
        Cs(f)    : 0
        Cs(r)    : 0
        Cl(f)    : 0
        Cl(r)    : 0
Courant Number mean: 0.0005680107242233841 max: 1.0027863711294
deltaT = 0.0002564102564102587
Time = 0.0984615

PIMPLE: iteration 1
GAMG:  Solving for p, Initial residual = 0.01691502126419513, Final residual = 4.490369790906207e-09, No Iterations 16
time step continuity errors : sum local = 3.111117832613554e-18, global = 1.525433788175439e-18, cumulative = 8.840635247187141e-17
ExecutionTime = 43.18 s  ClockTime = 45 s

forces forces write:
    Sum of forces
        Total    : (0 0 0)
        Pressure : (0 0 0)
        Viscous  : (0 0 0)
    Sum of moments
        Total    : (0 0 0)
        Pressure : (0 0 0)
        Viscous  : (0 0 0)


forceCoeffs forceCoeffs execute:
    Coefficients
        Cd       : 0	(pressure: 0	viscous: 0)
        Cs       : 0	(pressure: 0	viscous: 0)
        Cl       : 0	(pressure: 0	viscous: 0)
        CmRoll       : 0	(pressure: 0	viscous: 0)
        CmPitch       : 0	(pressure: 0	viscous: 0)
        CmYaw       : 0	(pressure: 0	viscous: 0)
        Cd(f)    : 0
        Cd(r)    : 0
        Cs(f)    : 0
        Cs(r)    : 0
        Cl(f)    : 0
        Cl(r)    : 0
Courant Number mean: 0.0005680106752440694 max: 1.002872142924941
deltaT = 0.0002564102564102597
Time = 0.0987179

PIMPLE: iteration 1
GAMG:  Solving for p, Initial residual = 0.01794693606114148, Final residual = 6.95606584558105e-09, No Iterations 15
time step continuity errors : sum local = 4.816768820629215e-18, global = -2.314770594373437e-18, cumulative = 8.609158187749797e-17
ExecutionTime = 43.29 s  ClockTime = 46 s

forces forces write:
    Sum of forces
        Total    : (0 0 0)
        Pressure : (0 0 0)
        Viscous  : (0 0 0)
    Sum of moments
        Total    : (0 0 0)
        Pressure : (0 0 0)
        Viscous  : (0 0 0)


forceCoeffs forceCoeffs execute:
    Coefficients
        Cd       : 0	(pressure: 0	viscous: 0)
        Cs       : 0	(pressure: 0	viscous: 0)
        Cl       : 0	(pressure: 0	viscous: 0)
        CmRoll       : 0	(pressure: 0	viscous: 0)
        CmPitch       : 0	(pressure: 0	viscous: 0)
        CmYaw       : 0	(pressure: 0	viscous: 0)
        Cd(f)    : 0
        Cd(r)    : 0
        Cs(f)    : 0
        Cs(r)    : 0
        Cl(f)    : 0
        Cl(r)    : 0
Courant Number mean: 0.0005680106284684418 max: 1.002971344480571
deltaT = 0.0002564102564102611
Time = 0.0989744

PIMPLE: iteration 1
GAMG:  Solving for p, Initial residual = 0.01481767640530806, Final residual = 5.764202452311758e-09, No Iterations 15
time step continuity errors : sum local = 3.978800738788422e-18, global = -1.901907626307031e-18, cumulative = 8.418967425119095e-17
ExecutionTime = 43.41 s  ClockTime = 46 s

forces forces write:
    Sum of forces
        Total    : (0 0 0)
        Pressure : (0 0 0)
        Viscous  : (0 0 0)
    Sum of moments
        Total    : (0 0 0)
        Pressure : (0 0 0)
        Viscous  : (0 0 0)


forceCoeffs forceCoeffs execute:
    Coefficients
        Cd       : 0	(pressure: 0	viscous: 0)
        Cs       : 0	(pressure: 0	viscous: 0)
        Cl       : 0	(pressure: 0	viscous: 0)
        CmRoll       : 0	(pressure: 0	viscous: 0)
        CmPitch       : 0	(pressure: 0	viscous: 0)
        CmYaw       : 0	(pressure: 0	viscous: 0)
        Cd(f)    : 0
        Cd(r)    : 0
        Cs(f)    : 0
        Cs(r)    : 0
        Cl(f)    : 0
        Cl(r)    : 0
Courant Number mean: 0.000568010582254727 max: 1.003060471960074
deltaT = 0.0002564102564102597
Time = 0.0992308

PIMPLE: iteration 1
GAMG:  Solving for p, Initial residual = 0.01130964347636538, Final residual = 5.22198800799869e-09, No Iterations 15
time step continuity errors : sum local = 3.618140458146498e-18, global = 1.740081024712301e-18, cumulative = 8.592975527590324e-17
ExecutionTime = 43.55 s  ClockTime = 46 s

forces forces write:
    Sum of forces
        Total    : (0 0 0)
        Pressure : (0 0 0)
        Viscous  : (0 0 0)
    Sum of moments
        Total    : (0 0 0)
        Pressure : (0 0 0)
        Viscous  : (0 0 0)


forceCoeffs forceCoeffs execute:
    Coefficients
        Cd       : 0	(pressure: 0	viscous: 0)
        Cs       : 0	(pressure: 0	viscous: 0)
        Cl       : 0	(pressure: 0	viscous: 0)
        CmRoll       : 0	(pressure: 0	viscous: 0)
        CmPitch       : 0	(pressure: 0	viscous: 0)
        CmYaw       : 0	(pressure: 0	viscous: 0)
        Cd(f)    : 0
        Cd(r)    : 0
        Cs(f)    : 0
        Cs(r)    : 0
        Cl(f)    : 0
        Cl(r)    : 0
Courant Number mean: 0.0005680105359312089 max: 1.003133036440287
deltaT = 0.0002564102564102573
Time = 0.0994872

PIMPLE: iteration 1
GAMG:  Solving for p, Initial residual = 0.01134916714239335, Final residual = 4.989459925194591e-09, No Iterations 15
time step continuity errors : sum local = 3.490776587641927e-18, global = 1.67613526777649e-18, cumulative = 8.760589054367974e-17
ExecutionTime = 43.66 s  ClockTime = 46 s

forces forces write:
    Sum of forces
        Total    : (0 0 0)
        Pressure : (0 0 0)
        Viscous  : (0 0 0)
    Sum of moments
        Total    : (0 0 0)
        Pressure : (0 0 0)
        Viscous  : (0 0 0)


forceCoeffs forceCoeffs execute:
    Coefficients
        Cd       : 0	(pressure: 0	viscous: 0)
        Cs       : 0	(pressure: 0	viscous: 0)
        Cl       : 0	(pressure: 0	viscous: 0)
        CmRoll       : 0	(pressure: 0	viscous: 0)
        CmPitch       : 0	(pressure: 0	viscous: 0)
        CmYaw       : 0	(pressure: 0	viscous: 0)
        Cd(f)    : 0
        Cd(r)    : 0
        Cs(f)    : 0
        Cs(r)    : 0
        Cl(f)    : 0
        Cl(r)    : 0
Courant Number mean: 0.0005680104885022394 max: 1.003239418203191
deltaT = 0.0002564102564102597
Time = 0.0997436

PIMPLE: iteration 1
GAMG:  Solving for p, Initial residual = 0.01178672149882117, Final residual = 4.838209771815316e-09, No Iterations 15
time step continuity errors : sum local = 3.400844899179285e-18, global = 1.635152926566347e-18, cumulative = 8.924104347024609e-17
ExecutionTime = 43.79 s  ClockTime = 46 s

forces forces write:
    Sum of forces
        Total    : (0 0 0)
        Pressure : (0 0 0)
        Viscous  : (0 0 0)
    Sum of moments
        Total    : (0 0 0)
        Pressure : (0 0 0)
        Viscous  : (0 0 0)


forceCoeffs forceCoeffs execute:
    Coefficients
        Cd       : 0	(pressure: 0	viscous: 0)
        Cs       : 0	(pressure: 0	viscous: 0)
        Cl       : 0	(pressure: 0	viscous: 0)
        CmRoll       : 0	(pressure: 0	viscous: 0)
        CmPitch       : 0	(pressure: 0	viscous: 0)
        CmYaw       : 0	(pressure: 0	viscous: 0)
        Cd(f)    : 0
        Cd(r)    : 0
        Cs(f)    : 0
        Cs(r)    : 0
        Cl(f)    : 0
        Cl(r)    : 0
Courant Number mean: 0.0005680104416619448 max: 1.003364934382053
deltaT = 0.0002564102564102666
Time = 0.1

PIMPLE: iteration 1
GAMG:  Solving for p, Initial residual = 0.01421592200454238, Final residual = 4.340062961821519e-09, No Iterations 15
time step continuity errors : sum local = 3.086006165608541e-18, global = -1.94668870491606e-19, cumulative = 8.904637459975448e-17
ExecutionTime = 43.93 s  ClockTime = 47 s

forces forces write:
    Sum of forces
        Total    : (0 0 0)
        Pressure : (0 0 0)
        Viscous  : (0 0 0)
    Sum of moments
        Total    : (0 0 0)
        Pressure : (0 0 0)
        Viscous  : (0 0 0)


forceCoeffs forceCoeffs execute:
    Coefficients
        Cd       : 0	(pressure: 0	viscous: 0)
        Cs       : 0	(pressure: 0	viscous: 0)
        Cl       : 0	(pressure: 0	viscous: 0)
        CmRoll       : 0	(pressure: 0	viscous: 0)
        CmPitch       : 0	(pressure: 0	viscous: 0)
        CmYaw       : 0	(pressure: 0	viscous: 0)
        Cd(f)    : 0
        Cd(r)    : 0
        Cs(f)    : 0
        Cs(r)    : 0
        Cl(f)    : 0
        Cl(r)    : 0
    functionObjects::vorticity vorticity1 writing field: vorticity
surfaceFieldValue surfaceFieldValue write:
--------------------------------------------------------------------------
MPI_ABORT was invoked on rank 2 in communicator MPI_COMM_WORLD 
with errorcode 1.

NOTE: invoking MPI_ABORT causes Open MPI to kill all MPI processes.
You may or may not see output from other processes, depending on
exactly when Open MPI kills them.
--------------------------------------------------------------------------
